@<TRIPOS>MOLECULE
CFE-2008-ZL-33
 48 51 0 0 0
SMALL
MULLIKEN_CHARGES
****
Gaussian 16 #p B3LYP/6-31G* opt
@<TRIPOS>ATOM
1		C		3.2565		5.8684		1.3686		C.2		1		UNL1		-0.3240
2		C		4.2181		5.1690		0.7678		C.2		1		UNL1		-0.0461
3		C		4.0891		4.5733		-0.6137		C.3		1		UNL1		-0.1845
4		N		4.1785		3.1130		-0.6225		N.3		1		UNL1		-0.6315
5		C		3.1280		2.2841		-0.4269		C.ar		1		UNL1		0.7121
6		N		3.4250		0.9665		-0.3061		N.ar		1		UNL1		-0.5684
7		C		2.3600		0.1868		-0.1456		C.ar		1		UNL1		0.7237
8		N		2.4912		-1.1743		-0.0111		N.pl3		1		UNL1		-0.7791
9		C		3.6031		-2.0194		-0.0081		C.ar		1		UNL1		0.3817
10		C		3.3504		-3.3963		0.1537		C.ar		1		UNL1		-0.2047
11		C		4.3883		-4.3134		0.1707		C.ar		1		UNL1		-0.1403
12		C		5.7174		-3.8783		0.0257		C.ar		1		UNL1		0.1324
13		C		6.7957		-4.8190		0.0428		C.1		1		UNL1		0.2282
14		N		7.6730		-5.5841		0.0571		N.1		1		UNL1		-0.4830
15		C		5.9689		-2.5061		-0.1360		C.ar		1		UNL1		-0.1531
16		C		4.9318		-1.5819		-0.1538		C.ar		1		UNL1		-0.1544
17		N		1.0714		0.5987		-0.0945		N.ar		1		UNL1		-0.5581
18		C		0.9334		1.9120		-0.2254		C.ar		1		UNL1		0.6722
19		O		-0.3085		2.4461		-0.2063		O.3		1		UNL1		-0.5364
20		C		-1.4159		1.6373		0.0473		C.ar		1		UNL1		0.3580
21		C		-1.6117		1.0888		1.3367		C.ar		1		UNL1		-0.1355
22		C		-2.7600		0.3825		1.6030		C.ar		1		UNL1		-0.2067
23		C		-3.7563		0.1990		0.6049		C.ar		1		UNL1		0.1454
24		C		-4.9497		-0.5270		0.8600		C.ar		1		UNL1		-0.2212
25		C		-5.8859		-0.6753		-0.1346		C.ar		1		UNL1		0.0788
26		BR		-7.4926		-1.6549		0.2097		Br		1		UNL1		-0.1291
27		C		-5.6960		-0.1190		-1.4205		C.ar		1		UNL1		-0.1526
28		C		-4.5464		0.5892		-1.6860		C.ar		1		UNL1		-0.1906
29		C		-3.5474		0.7693		-0.6925		C.ar		1		UNL1		0.1356
30		C		-2.3522		1.4929		-0.9451		C.ar		1		UNL1		-0.2367
31		N		1.8946		2.8162		-0.3903		N.ar		1		UNL1		-0.5316
32		H		3.3893		6.2857		2.3633		H		1		UNL1		0.1460
33		H		2.2973		6.0451		0.8877		H		1		UNL1		0.1569
34		H		5.1656		4.9939		1.2791		H		1		UNL1		0.1273
35		H		3.1305		4.8480		-1.0573		H		1		UNL1		0.1957
36		H		4.8859		4.9459		-1.2693		H		1		UNL1		0.1579
37		H		5.0858		2.6718		-0.5671		H		1		UNL1		0.3366
38		H		1.5899		-1.6226		0.0986		H		1		UNL1		0.3514
39		H		2.3263		-3.7442		0.2664		H		1		UNL1		0.1407
40		H		4.1778		-5.3705		0.2961		H		1		UNL1		0.1601
41		H		6.9924		-2.1627		-0.2492		H		1		UNL1		0.1573
42		H		5.1305		-0.5277		-0.2790		H		1		UNL1		0.1791
43		H		-0.8530		1.2363		2.0974		H		1		UNL1		0.1473
44		H		-2.9214		-0.0421		2.5904		H		1		UNL1		0.1420
45		H		-5.1145		-0.9604		1.8412		H		1		UNL1		0.1540
46		H		-6.4561		-0.2551		-2.1818		H		1		UNL1		0.1561
47		H		-4.3928		1.0206		-2.6719		H		1		UNL1		0.1440
48		H		-2.1766		1.9387		-1.9194		H		1		UNL1		0.1472
@<TRIPOS>BOND
1		47		28		1
2		46		27		1
3		48		30		1
4		28		27		ar
5		28		29		ar
6		27		25		ar
7		36		3		1
8		35		3		1
9		30		29		ar
10		30		20		ar
11		29		23		ar
12		4		3		1
13		4		37		1
14		4		5		1
15		3		2		1
16		5		31		ar
17		5		6		ar
18		31		18		ar
19		6		7		ar
20		42		16		1
21		41		15		1
22		18		19		1
23		18		17		ar
24		19		20		1
25		16		15		ar
26		16		9		ar
27		7		17		ar
28		7		8		1
29		15		12		ar
30		25		26		1
31		25		24		ar
32		8		9		1
33		8		38		1
34		9		10		ar
35		12		13		1
36		12		11		ar
37		13		14		3
38		20		21		ar
39		10		11		ar
40		10		39		1
41		11		40		1
42		23		24		ar
43		23		22		ar
44		2		34		1
45		2		1		2
46		24		45		1
47		33		1		1
48		21		22		ar
49		21		43		1
50		1		32		1
51		22		44		1

