@<TRIPOS>MOLECULE
CFE-2008-ZL-1
 44 47 0 0 0
SMALL
MULLIKEN_CHARGES
****
Gaussian 16 #p B3LYP/6-31G* opt
@<TRIPOS>ATOM
1		C		-0.6990		4.9931		0.7014		C.3		1		UNL1		-0.2869
2		N		-1.2991		3.7437		0.2727		N.3		1		UNL1		-0.6251
3		C		-0.6107		2.5973		0.0915		C.ar		1		UNL1		0.6954
4		N		0.7180		2.6167		0.2691		N.ar		1		UNL1		-0.5775
5		C		1.3120		1.4270		0.0586		C.ar		1		UNL1		0.7208
6		N		2.6734		1.4524		0.2393		N.pl3		1		UNL1		-0.7765
7		C		3.6562		0.4646		0.1269		C.ar		1		UNL1		0.3797
8		C		3.4020		-0.8714		-0.2338		C.ar		1		UNL1		-0.1605
9		C		4.4552		-1.7738		-0.3168		C.ar		1		UNL1		-0.1548
10		C		5.7761		-1.3792		-0.0468		C.ar		1		UNL1		0.1320
11		C		6.8512		-2.3195		-0.1360		C.1		1		UNL1		0.2280
12		N		7.7276		-3.0825		-0.2077		N.1		1		UNL1		-0.4848
13		C		6.0266		-0.0435		0.3132		C.ar		1		UNL1		-0.1407
14		C		4.9810		0.8611		0.3977		C.ar		1		UNL1		-0.2056
15		N		0.7043		0.2886		-0.2910		N.ar		1		UNL1		-0.5450
16		C		-0.6202		0.4204		-0.4315		C.ar		1		UNL1		0.6798
17		O		-1.2284		-0.7347		-0.7805		O.3		1		UNL1		-0.5430
18		C		-2.6149		-0.7578		-0.9663		C.ar		1		UNL1		0.2858
19		C		-3.1389		-0.4313		-2.1922		C.ar		1		UNL1		-0.1518
20		C		-4.5331		-0.5379		-2.4066		C.ar		1		UNL1		-0.1514
21		C		-5.3630		-0.9702		-1.3976		C.ar		1		UNL1		-0.1793
22		C		-4.8370		-1.3245		-0.1262		C.ar		1		UNL1		0.1209
23		C		-5.6654		-1.7832		0.9333		C.ar		1		UNL1		-0.1961
24		C		-5.1290		-2.1277		2.1531		C.ar		1		UNL1		-0.1305
25		C		-3.7328		-2.0333		2.3710		C.ar		1		UNL1		-0.1368
26		C		-2.8975		-1.5918		1.3696		C.ar		1		UNL1		-0.1881
27		C		-3.4253		-1.2229		0.1042		C.ar		1		UNL1		0.1184
28		N		-1.3445		1.5121		-0.2648		N.ar		1		UNL1		-0.5369
29		H		-0.2975		4.9225		1.7194		H		1		UNL1		0.1708
30		H		-1.4661		5.7701		0.6759		H		1		UNL1		0.1580
31		H		0.1188		5.2786		0.0330		H		1		UNL1		0.1790
32		H		-2.3002		3.6663		0.1702		H		1		UNL1		0.3464
33		H		2.9967		2.3744		0.5035		H		1		UNL1		0.3457
34		H		2.3884		-1.1821		-0.4429		H		1		UNL1		0.2014
35		H		4.2534		-2.8032		-0.5957		H		1		UNL1		0.1603
36		H		7.0416		0.2768		0.5248		H		1		UNL1		0.1574
37		H		5.1861		1.8919		0.6772		H		1		UNL1		0.1359
38		H		-2.4773		-0.0941		-2.9834		H		1		UNL1		0.1413
39		H		-4.9417		-0.2755		-3.3782		H		1		UNL1		0.1359
40		H		-6.4344		-1.0528		-1.5622		H		1		UNL1		0.1310
41		H		-6.7362		-1.8599		0.7605		H		1		UNL1		0.1320
42		H		-5.7756		-2.4781		2.9531		H		1		UNL1		0.1325
43		H		-3.3195		-2.3154		3.3354		H		1		UNL1		0.1337
44		H		-1.8264		-1.5317		1.5308		H		1		UNL1		0.1489
@<TRIPOS>BOND
1		39		20		1
2		38		19		1
3		20		19		ar
4		20		21		ar
5		19		18		ar
6		40		21		1
7		21		22		ar
8		18		17		1
9		18		27		ar
10		17		16		1
11		35		9		1
12		34		8		1
13		16		15		ar
14		16		28		ar
15		9		8		ar
16		9		10		ar
17		15		5		ar
18		28		3		ar
19		8		7		ar
20		12		11		3
21		11		10		1
22		22		27		ar
23		22		23		ar
24		10		13		ar
25		31		1		1
26		5		6		1
27		5		4		ar
28		3		4		ar
29		3		2		1
30		27		26		ar
31		7		6		1
32		7		14		ar
33		32		2		1
34		6		33		1
35		2		1		1
36		13		14		ar
37		13		36		1
38		14		37		1
39		30		1		1
40		1		29		1
41		41		23		1
42		23		24		ar
43		26		44		1
44		26		25		ar
45		24		25		ar
46		24		42		1
47		25		43		1

