@<TRIPOS>MOLECULE
CFE-2008-ZL-3
 41 44 0 0 0
SMALL
MULLIKEN_CHARGES
****
Gaussian 16 #p B3LYP/6-31G* opt
@<TRIPOS>ATOM
1		N		-8.2005		-2.1132		0.4249		N.1		1		UNL1		-0.4799
2		C		-7.0737		-1.8479		0.3035		C.1		1		UNL1		0.2309
3		C		-5.6872		-1.5247		0.1536		C.ar		1		UNL1		0.1345
4		C		-5.2474		-0.1956		0.2626		C.ar		1		UNL1		-0.1536
5		C		-3.9043		0.1321		0.1192		C.ar		1		UNL1		-0.1591
6		C		-2.9661		-0.8822		-0.1395		C.ar		1		UNL1		0.3771
7		N		-1.5909		-0.6646		-0.3022		N.pl3		1		UNL1		-0.7748
8		C		-0.8276		0.4678		-0.2564		C.ar		1		UNL1		0.7266
9		N		-1.3899		1.6593		-0.0207		N.ar		1		UNL1		-0.5326
10		C		-0.5127		2.6664		-0.0015		C.ar		1		UNL1		0.6671
11		N		-1.0932		3.9159		0.2450		N.2		1		UNL1		-0.4474
12		N		-0.2996		4.8821		0.2691		N.2		1		UNL1		0.4750
13		N		0.2799		5.8532		0.3227		N.2		1		UNL1		-0.2027
14		N		0.8071		2.5904		-0.1876		N.ar		1		UNL1		-0.5156
15		C		1.2333		1.3416		-0.4171		C.ar		1		UNL1		0.6804
16		O		2.5614		1.2544		-0.6050		O.3		1		UNL1		-0.5335
17		C		3.1458		0.0059		-0.8662		C.ar		1		UNL1		0.2765
18		C		3.2248		-0.4402		-2.1613		C.ar		1		UNL1		-0.1528
19		C		3.8859		-1.6600		-2.4381		C.ar		1		UNL1		-0.1522
20		C		4.4499		-2.3934		-1.4194		C.ar		1		UNL1		-0.1774
21		C		4.3882		-1.9385		-0.0747		C.ar		1		UNL1		0.1195
22		C		4.9689		-2.6687		0.9970		C.ar		1		UNL1		-0.1954
23		C		4.9024		-2.2014		2.2898		C.ar		1		UNL1		-0.1300
24		C		4.2537		-0.9747		2.5728		C.ar		1		UNL1		-0.1357
25		C		3.6773		-0.2390		1.5619		C.ar		1		UNL1		-0.1893
26		C		3.7240		-0.7023		0.2206		C.ar		1		UNL1		0.1223
27		N		0.4891		0.2464		-0.4665		N.ar		1		UNL1		-0.5350
28		C		-3.4052		-2.2154		-0.2491		C.ar		1		UNL1		-0.2042
29		C		-4.7455		-2.5357		-0.1052		C.ar		1		UNL1		-0.1399
30		H		-5.9689		0.5902		0.4623		H		1		UNL1		0.1641
31		H		-3.5749		1.1574		0.2049		H		1		UNL1		0.2021
32		H		-1.0291		-1.4875		-0.4845		H		1		UNL1		0.3555
33		H		2.7806		0.1470		-2.9584		H		1		UNL1		0.1443
34		H		3.9443		-2.0104		-3.4644		H		1		UNL1		0.1398
35		H		4.9580		-3.3306		-1.6317		H		1		UNL1		0.1347
36		H		5.4717		-3.6069		0.7751		H		1		UNL1		0.1352
37		H		5.3523		-2.7705		3.0986		H		1		UNL1		0.1361
38		H		4.2150		-0.6113		3.5959		H		1		UNL1		0.1371
39		H		3.1936		0.7079		1.7770		H		1		UNL1		0.1485
40		H		-2.6844		-3.0047		-0.4488		H		1		UNL1		0.1419
41		H		-5.0710		-3.5671		-0.1918		H		1		UNL1		0.1618
@<TRIPOS>BOND
1		34		19		1
2		33		18		1
3		19		18		ar
4		19		20		ar
5		18		17		ar
6		35		20		1
7		20		21		ar
8		17		16		1
9		17		26		ar
10		16		15		1
11		32		7		1
12		27		15		ar
13		27		8		ar
14		40		28		1
15		15		14		ar
16		7		8		1
17		7		6		1
18		8		9		ar
19		28		6		ar
20		28		29		ar
21		41		29		1
22		14		10		ar
23		6		5		ar
24		29		3		ar
25		21		26		ar
26		21		22		ar
27		9		10		ar
28		10		11		1
29		5		31		1
30		5		4		ar
31		3		4		ar
32		3		2		1
33		26		25		ar
34		11		12		2
35		4		30		1
36		12		13		2
37		2		1		3
38		36		22		1
39		22		23		ar
40		25		39		1
41		25		24		ar
42		23		24		ar
43		23		37		1
44		24		38		1

