@<TRIPOS>MOLECULE
CFE-2008-ZL-26
 41 44 0 0 0
SMALL
MULLIKEN_CHARGES
****
Gaussian 16 #p B3LYP/6-31G* opt
@<TRIPOS>ATOM
1		N		-8.3166		-2.5813		0.2969		N.1		1		UNL1		-0.4831
2		C		-7.2299		-2.1728		0.2112		C.1		1		UNL1		0.2283
3		C		-5.8938		-1.6710		0.1055		C.ar		1		UNL1		0.1325
4		C		-4.8077		-2.5549		-0.0201		C.ar		1		UNL1		-0.1402
5		C		-3.5175		-2.0612		-0.1221		C.ar		1		UNL1		-0.2045
6		C		-3.2692		-0.6743		-0.1020		C.ar		1		UNL1		0.3818
7		N		-1.9350		-0.2755		-0.2144		N.pl3		1		UNL1		-0.7787
8		C		-1.3321		0.9580		-0.2129		C.ar		1		UNL1		0.7225
9		N		-2.0513		2.0719		-0.0799		N.ar		1		UNL1		-0.5505
10		C		-1.3108		3.2017		-0.0971		C.ar		1		UNL1		0.6706
11		N		-1.9771		4.3730		0.0074		N.3		1		UNL1		-0.7700
12		N		0.0253		3.2714		-0.2246		N.ar		1		UNL1		-0.5176
13		C		0.6009		2.0801		-0.3435		C.ar		1		UNL1		0.6847
14		O		1.9475		2.1386		-0.4697		O.3		1		UNL1		-0.5312
15		C		2.6693		0.9615		-0.6144		C.ar		1		UNL1		0.3583
16		C		2.9068		0.4783		-1.9197		C.ar		1		UNL1		-0.1419
17		C		3.7004		-0.6251		-2.1096		C.ar		1		UNL1		-0.2071
18		C		4.2939		-1.2937		-1.0063		C.ar		1		UNL1		0.1540
19		C		5.1186		-2.4358		-1.1869		C.ar		1		UNL1		-0.1963
20		C		5.6913		-3.0751		-0.1118		C.ar		1		UNL1		-0.1308
21		C		5.4619		-2.5944		1.1987		C.ar		1		UNL1		-0.1335
22		C		4.6688		-1.4892		1.4136		C.ar		1		UNL1		-0.1948
23		C		4.0628		-0.8074		0.3249		C.ar		1		UNL1		0.1224
24		C		3.2315		0.3421		0.4817		C.ar		1		UNL1		-0.1862
25		CL		2.9099		0.9881		2.0777		Cl		1		UNL1		0.0134
26		N		0.0104		0.8915		-0.3543		N.ar		1		UNL1		-0.5547
27		C		-4.3540		0.2119		0.0234		C.ar		1		UNL1		-0.1542
28		C		-5.6460		-0.2887		0.1253		C.ar		1		UNL1		-0.1529
29		H		-4.9831		-3.6256		-0.0367		H		1		UNL1		0.1598
30		H		-2.6848		-2.7540		-0.2181		H		1		UNL1		0.1409
31		H		-1.2539		-1.0189		-0.3088		H		1		UNL1		0.3523
32		H		-2.9586		4.3623		0.2361		H		1		UNL1		0.3503
33		H		-1.4437		5.2211		0.1217		H		1		UNL1		0.3564
34		H		2.4534		1.0061		-2.7523		H		1		UNL1		0.1503
35		H		3.8865		-0.9987		-3.1128		H		1		UNL1		0.1422
36		H		5.2888		-2.7958		-2.1986		H		1		UNL1		0.1361
37		H		6.3198		-3.9477		-0.2654		H		1		UNL1		0.1367
38		H		5.9165		-3.1021		2.0448		H		1		UNL1		0.1381
39		H		4.4989		-1.1275		2.4212		H		1		UNL1		0.1583
40		H		-4.1689		1.2758		0.0397		H		1		UNL1		0.1805
41		H		-6.4795		0.3999		0.2216		H		1		UNL1		0.1576
@<TRIPOS>BOND
1		35		17		1
2		34		16		1
3		36		19		1
4		17		16		ar
5		17		18		ar
6		16		15		ar
7		19		18		ar
8		19		20		ar
9		18		23		ar
10		15		14		1
11		15		24		ar
12		14		13		1
13		26		13		ar
14		26		8		ar
15		13		12		ar
16		31		7		1
17		37		20		1
18		12		10		ar
19		30		5		1
20		7		8		1
21		7		6		1
22		8		9		ar
23		5		6		ar
24		5		4		ar
25		20		21		ar
26		6		27		ar
27		10		9		ar
28		10		11		1
29		29		4		1
30		4		3		ar
31		11		33		1
32		11		32		1
33		27		40		1
34		27		28		ar
35		3		28		ar
36		3		2		1
37		28		41		1
38		2		1		3
39		23		24		ar
40		23		22		ar
41		24		25		1
42		21		22		ar
43		21		38		1
44		22		39		1

