@<TRIPOS>MOLECULE
CFE-2008-ZL-12
 48 51 0 0 0
SMALL
MULLIKEN_CHARGES
****
Gaussian 16 #p B3LYP/6-31G* opt
@<TRIPOS>ATOM
1		C		0.4679		-6.8536		0.5122		C.2		1		UNL1		-0.3373
2		C		1.0090		-5.6421		0.6387		C.2		1		UNL1		-0.0534
3		C		1.5484		-4.8332		-0.5120		C.3		1		UNL1		-0.1772
4		N		0.8721		-3.5470		-0.6303		N.3		1		UNL1		-0.6349
5		C		1.4612		-2.3317		-0.5767		C.ar		1		UNL1		0.7080
6		N		2.7929		-2.2524		-0.4458		N.ar		1		UNL1		-0.5794
7		C		3.2692		-0.9949		-0.4082		C.ar		1		UNL1		0.7264
8		N		4.6334		-0.9237		-0.2788		N.pl3		1		UNL1		-0.7766
9		C		5.5165		0.1583		-0.1974		C.ar		1		UNL1		0.3793
10		C		5.1233		1.5086		-0.2237		C.ar		1		UNL1		-0.1596
11		C		6.0857		2.5069		-0.1348		C.ar		1		UNL1		-0.1546
12		C		7.4503		2.1950		-0.0188		C.ar		1		UNL1		0.1325
13		C		8.4309		3.2336		0.0711		C.1		1		UNL1		0.2286
14		N		9.2305		4.0765		0.1441		N.1		1		UNL1		-0.4837
15		C		7.8397		0.8445		0.0077		C.ar		1		UNL1		-0.1404
16		C		6.8850		-0.1554		-0.0804		C.ar		1		UNL1		-0.2055
17		N		2.5447		0.1280		-0.4840		N.ar		1		UNL1		-0.5432
18		C		1.2372		-0.1047		-0.6081		C.ar		1		UNL1		0.6912
19		O		0.5027		1.0325		-0.6896		O.3		1		UNL1		-0.5355
20		C		-0.8787		0.9419		-0.7817		C.ar		1		UNL1		0.3318
21		C		-1.4587		1.0978		-2.0592		C.ar		1		UNL1		-0.1496
22		C		-2.8239		1.1162		-2.1989		C.ar		1		UNL1		-0.2008
23		C		-3.6698		0.9793		-1.0670		C.ar		1		UNL1		0.1549
24		C		-5.0835		0.9957		-1.2011		C.ar		1		UNL1		-0.2260
25		C		-5.8823		0.8640		-0.0926		C.ar		1		UNL1		0.0838
26		BR		-7.7839		0.8846		-0.2784		Br		1		UNL1		-0.1223
27		C		-5.3268		0.7114		1.1972		C.ar		1		UNL1		-0.1507
28		C		-3.9600		0.6933		1.3521		C.ar		1		UNL1		-0.1878
29		C		-3.0899		0.8250		0.2373		C.ar		1		UNL1		0.0941
30		C		-1.6687		0.8143		0.3405		C.ar		1		UNL1		-0.0002
31		BR		-0.8200		0.6212		2.0332		Br		1		UNL1		-0.0976
32		N		0.6199		-1.2697		-0.6680		N.ar		1		UNL1		-0.5415
33		H		0.1009		-7.4097		1.3702		H		1		UNL1		0.1523
34		H		0.3794		-7.3412		-0.4570		H		1		UNL1		0.1436
35		H		1.0803		-5.1720		1.6194		H		1		UNL1		0.1435
36		H		2.6095		-4.6101		-0.3717		H		1		UNL1		0.1974
37		H		1.4473		-5.3964		-1.4495		H		1		UNL1		0.1562
38		H		-0.1367		-3.5294		-0.7001		H		1		UNL1		0.3439
39		H		5.0534		-1.8438		-0.2368		H		1		UNL1		0.3459
40		H		4.0754		1.7566		-0.3127		H		1		UNL1		0.2021
41		H		5.7769		3.5472		-0.1551		H		1		UNL1		0.1611
42		H		8.8901		0.5875		0.0972		H		1		UNL1		0.1583
43		H		7.1973		-1.1970		-0.0593		H		1		UNL1		0.1366
44		H		-0.7969		1.2072		-2.9121		H		1		UNL1		0.1556
45		H		-3.2734		1.2371		-3.1804		H		1		UNL1		0.1476
46		H		-5.5216		1.1132		-2.1869		H		1		UNL1		0.1577
47		H		-5.9813		0.6098		2.0558		H		1		UNL1		0.1597
48		H		-3.5316		0.5761		2.3409		H		1		UNL1		0.1657
@<TRIPOS>BOND
1		45		22		1
2		44		21		1
3		22		21		ar
4		22		23		ar
5		46		24		1
6		21		20		ar
7		37		3		1
8		24		23		ar
9		24		25		ar
10		23		29		ar
11		20		19		1
12		20		30		ar
13		38		4		1
14		19		18		1
15		32		18		ar
16		32		5		ar
17		4		5		1
18		4		3		1
19		18		17		ar
20		5		6		ar
21		3		36		1
22		3		2		1
23		17		7		ar
24		34		1		1
25		6		7		ar
26		7		8		1
27		40		10		1
28		8		39		1
29		8		9		1
30		26		25		1
31		10		9		ar
32		10		11		ar
33		9		16		ar
34		41		11		1
35		11		12		ar
36		25		27		ar
37		16		43		1
38		16		15		ar
39		12		15		ar
40		12		13		1
41		15		42		1
42		13		14		3
43		29		30		ar
44		29		28		ar
45		30		31		1
46		1		2		2
47		1		33		1
48		2		35		1
49		27		28		ar
50		27		47		1
51		28		48		1

