@<TRIPOS>MOLECULE
CFE-2008-ZL-30
 50 53 0 0 0
SMALL
MULLIKEN_CHARGES
****
Gaussian 16 #p B3LYP/6-31G* opt
@<TRIPOS>ATOM
1		C		1.1525		4.9359		0.5369		C.3		1		UNL1		-0.4510
2		C		2.1046		3.9185		-0.0979		C.3		1		UNL1		-0.2524
3		C		1.4620		3.0861		-1.2187		C.3		1		UNL1		-0.1321
4		N		0.3439		2.2595		-0.7806		N.3		1		UNL1		-0.6304
5		C		0.4419		1.0204		-0.2530		C.ar		1		UNL1		0.7050
6		N		1.6635		0.4620		-0.1350		N.ar		1		UNL1		-0.5661
7		C		1.6447		-0.7730		0.3755		C.ar		1		UNL1		0.7178
8		N		2.8127		-1.4757		0.5520		N.pl3		1		UNL1		-0.7792
9		C		4.1508		-1.1696		0.2993		C.ar		1		UNL1		0.3815
10		C		5.0951		-2.1747		0.5909		C.ar		1		UNL1		-0.2032
11		C		6.4475		-1.9649		0.3778		C.ar		1		UNL1		-0.1407
12		C		6.8995		-0.7367		-0.1363		C.ar		1		UNL1		0.1323
13		C		8.2949		-0.5112		-0.3591		C.1		1		UNL1		0.2278
14		N		9.4301		-0.3272		-0.5401		N.1		1		UNL1		-0.4840
15		C		5.9587		0.2649		-0.4265		C.ar		1		UNL1		-0.1564
16		C		4.6012		0.0599		-0.2145		C.ar		1		UNL1		-0.1625
17		N		0.5540		-1.4604		0.7669		N.ar		1		UNL1		-0.5501
18		C		-0.5772		-0.7842		0.5964		C.ar		1		UNL1		0.6871
19		O		-1.6793		-1.4680		0.9890		O.3		1		UNL1		-0.5335
20		C		-2.9255		-0.8674		0.8788		C.ar		1		UNL1		0.3607
21		C		-3.4008		-0.1029		1.9667		C.ar		1		UNL1		-0.1407
22		C		-4.6688		0.4209		1.9365		C.ar		1		UNL1		-0.2071
23		C		-5.5200		0.2034		0.8210		C.ar		1		UNL1		0.1543
24		C		-6.8354		0.7372		0.7757		C.ar		1		UNL1		-0.1964
25		C		-7.6535		0.5184		-0.3084		C.ar		1		UNL1		-0.1309
26		C		-7.1866		-0.2501		-1.4004		C.ar		1		UNL1		-0.1336
27		C		-5.9176		-0.7849		-1.3925		C.ar		1		UNL1		-0.1946
28		C		-5.0485		-0.5767		-0.2886		C.ar		1		UNL1		0.1226
29		C		-3.7238		-1.1037		-0.2203		C.ar		1		UNL1		-0.1865
30		CL		-3.0871		-2.0647		-1.5390		Cl		1		UNL1		0.0130
31		N		-0.7248		0.4388		0.1082		N.ar		1		UNL1		-0.5446
32		H		1.6564		5.5100		1.3218		H		1		UNL1		0.1546
33		H		0.2881		4.4411		0.9944		H		1		UNL1		0.1487
34		H		0.7774		5.6500		-0.2075		H		1		UNL1		0.1413
35		H		2.4909		3.2345		0.6674		H		1		UNL1		0.1584
36		H		2.9735		4.4380		-0.5242		H		1		UNL1		0.1391
37		H		1.0817		3.7470		-2.0066		H		1		UNL1		0.1486
38		H		2.2068		2.4281		-1.6740		H		1		UNL1		0.1781
39		H		-0.5972		2.6243		-0.8199		H		1		UNL1		0.3445
40		H		2.6305		-2.3943		0.9375		H		1		UNL1		0.3527
41		H		4.7570		-3.1288		0.9880		H		1		UNL1		0.1414
42		H		7.1619		-2.7489		0.6070		H		1		UNL1		0.1596
43		H		6.2998		1.2161		-0.8232		H		1		UNL1		0.1559
44		H		3.8823		0.8338		-0.4389		H		1		UNL1		0.1946
45		H		-2.7413		0.0465		2.8153		H		1		UNL1		0.1487
46		H		-5.0380		1.0084		2.7728		H		1		UNL1		0.1411
47		H		-7.1839		1.3254		1.6211		H		1		UNL1		0.1354
48		H		-8.6573		0.9332		-0.3289		H		1		UNL1		0.1359
49		H		-7.8363		-0.4209		-2.2544		H		1		UNL1		0.1374
50		H		-5.5682		-1.3730		-2.2334		H		1		UNL1		0.1580
@<TRIPOS>BOND
1		49		26		1
2		50		27		1
3		37		3		1
4		38		3		1
5		30		29		1
6		26		27		ar
7		26		25		ar
8		27		28		ar
9		3		4		1
10		3		2		1
11		43		15		1
12		39		4		1
13		4		5		1
14		14		13		3
15		36		2		1
16		44		16		1
17		15		16		ar
18		15		12		ar
19		13		12		1
20		48		25		1
21		25		24		ar
22		28		29		ar
23		28		23		ar
24		5		6		ar
25		5		31		ar
26		29		20		ar
27		16		9		ar
28		34		1		1
29		12		11		ar
30		6		7		ar
31		2		1		1
32		2		35		1
33		31		18		ar
34		9		8		1
35		9		10		ar
36		7		8		1
37		7		17		ar
38		11		10		ar
39		11		42		1
40		1		33		1
41		1		32		1
42		8		40		1
43		10		41		1
44		18		17		ar
45		18		19		1
46		24		23		ar
47		24		47		1
48		23		22		ar
49		20		19		1
50		20		21		ar
51		22		21		ar
52		22		46		1
53		21		45		1

