@<TRIPOS>MOLECULE
CFE-2008-ZL-17
 41 44 0 0 0
SMALL
MULLIKEN_CHARGES
****
Gaussian 16 #p B3LYP/6-31G* opt
@<TRIPOS>ATOM
1		N		-2.8762		-5.9426		-0.1616		N.1		1		UNL1		-0.4793
2		C		-1.9799		-5.2004		-0.1468		C.1		1		UNL1		0.2319
3		C		-0.8757		-4.2893		-0.1301		C.ar		1		UNL1		0.1350
4		C		-1.0944		-2.9024		-0.1245		C.ar		1		UNL1		-0.1561
5		C		-0.0313		-2.0070		-0.1101		C.ar		1		UNL1		-0.1595
6		C		1.2869		-2.4937		-0.1006		C.ar		1		UNL1		0.3754
7		N		2.4309		-1.6819		-0.0874		N.pl3		1		UNL1		-0.7745
8		C		2.5981		-0.3262		-0.0813		C.ar		1		UNL1		0.7258
9		N		3.8872		0.0706		-0.0792		N.ar		1		UNL1		-0.5543
10		C		4.0424		1.3965		-0.0765		C.ar		1		UNL1		0.6607
11		N		5.3380		1.9287		-0.0747		N.2		1		UNL1		-0.4386
12		N		6.2660		1.0933		-0.0754		N.2		1		UNL1		0.4739
13		N		7.2112		0.4686		-0.0759		N.2		1		UNL1		-0.2115
14		N		3.0769		2.3186		-0.0749		N.ar		1		UNL1		-0.4911
15		C		1.8561		1.7876		-0.0767		C.ar		1		UNL1		0.6793
16		O		0.8679		2.7005		-0.0836		O.3		1		UNL1		-0.5270
17		C		-0.4651		2.2825		-0.0327		C.ar		1		UNL1		0.3552
18		C		-1.0109		1.9045		1.2131		C.ar		1		UNL1		-0.1512
19		C		-2.3449		1.5806		1.2831		C.ar		1		UNL1		-0.1595
20		CL		-2.9969		1.1115		2.8483		Cl		1		UNL1		0.0006
21		C		-3.1985		1.6191		0.1398		C.ar		1		UNL1		0.1471
22		C		-4.5790		1.2895		0.1700		C.ar		1		UNL1		-0.1970
23		C		-5.3420		1.3524		-0.9746		C.ar		1		UNL1		-0.1321
24		C		-4.7642		1.7490		-2.2035		C.ar		1		UNL1		-0.1301
25		C		-3.4292		2.0757		-2.2656		C.ar		1		UNL1		-0.1902
26		C		-2.6086		2.0208		-1.1073		C.ar		1		UNL1		0.1273
27		C		-1.2288		2.3508		-1.1675		C.ar		1		UNL1		-0.2234
28		N		1.5367		0.4930		-0.0798		N.ar		1		UNL1		-0.5326
29		C		1.5080		-3.8840		-0.1054		C.ar		1		UNL1		-0.2034
30		C		0.4444		-4.7719		-0.1201		C.ar		1		UNL1		-0.1397
31		H		-2.1104		-2.5213		-0.1309		H		1		UNL1		0.1674
32		H		-0.2121		-0.9423		-0.1067		H		1		UNL1		0.2032
33		H		3.3188		-2.1692		-0.0870		H		1		UNL1		0.3538
34		H		-0.3819		1.8785		2.0948		H		1		UNL1		0.1679
35		H		-5.0272		0.9866		1.1095		H		1		UNL1		0.1625
36		H		-6.3966		1.0956		-0.9339		H		1		UNL1		0.1430
37		H		-5.3782		1.7945		-3.0984		H		1		UNL1		0.1418
38		H		-2.9785		2.3813		-3.2063		H		1		UNL1		0.1410
39		H		-0.7807		2.6606		-2.1062		H		1		UNL1		0.1527
40		H		2.5256		-4.2676		-0.0977		H		1		UNL1		0.1426
41		H		0.6284		-5.8412		-0.1239		H		1		UNL1		0.1630
@<TRIPOS>BOND
1		38		25		1
2		37		24		1
3		25		24		ar
4		25		26		ar
5		24		23		ar
6		39		27		1
7		27		26		ar
8		27		17		ar
9		26		21		ar
10		23		36		1
11		23		22		ar
12		1		2		3
13		2		3		1
14		31		4		1
15		3		4		ar
16		3		30		ar
17		4		5		ar
18		41		30		1
19		30		29		ar
20		5		32		1
21		5		6		ar
22		29		6		ar
23		29		40		1
24		6		7		1
25		7		33		1
26		7		8		1
27		16		15		1
28		16		17		1
29		8		28		ar
30		8		9		ar
31		28		15		ar
32		9		10		ar
33		15		14		ar
34		10		14		ar
35		10		11		1
36		13		12		2
37		12		11		2
38		17		18		ar
39		21		22		ar
40		21		19		ar
41		22		35		1
42		18		19		ar
43		18		34		1
44		19		20		1

