@<TRIPOS>MOLECULE
CFE-2008-ZL-21
 44 47 0 0 0
SMALL
MULLIKEN_CHARGES
****
Gaussian 16 #p B3LYP/6-31G* opt
@<TRIPOS>ATOM
1		C		1.9105		4.0855		0.0909		C.3		1		UNL1		-0.3085
2		N		0.4722		3.8977		0.1333		N.3		1		UNL1		-0.6250
3		C		-0.1683		2.7199		-0.0343		C.ar		1		UNL1		0.7023
4		N		-1.5043		2.7339		0.1264		N.ar		1		UNL1		-0.5795
5		C		-2.0923		1.5436		-0.0658		C.ar		1		UNL1		0.7234
6		N		-3.4562		1.5641		0.0952		N.pl3		1		UNL1		-0.7771
7		C		-4.4318		0.5676		-0.0039		C.ar		1		UNL1		0.3800
8		C		-5.7640		0.9673		0.2221		C.ar		1		UNL1		-0.2057
9		C		-6.8039		0.0553		0.1480		C.ar		1		UNL1		-0.1406
10		C		-6.5401		-1.2916		-0.1563		C.ar		1		UNL1		0.1319
11		C		-7.6093		-2.2395		-0.2353		C.1		1		UNL1		0.2279
12		N		-8.4810		-3.0085		-0.2994		N.1		1		UNL1		-0.4851
13		C		-5.2118		-1.6897		-0.3810		C.ar		1		UNL1		-0.1548
14		C		-4.1643		-0.7798		-0.3081		C.ar		1		UNL1		-0.1599
15		N		-1.4753		0.3968		-0.3858		N.ar		1		UNL1		-0.5434
16		C		-0.1564		0.5340		-0.5080		C.ar		1		UNL1		0.6911
17		O		0.4703		-0.6212		-0.8381		O.3		1		UNL1		-0.5346
18		C		1.8539		-0.6350		-0.9572		C.ar		1		UNL1		0.3287
19		C		2.3963		-0.5780		-2.2592		C.ar		1		UNL1		-0.1504
20		C		3.7521		-0.6889		-2.4432		C.ar		1		UNL1		-0.2049
21		C		4.6253		-0.8615		-1.3374		C.ar		1		UNL1		0.1539
22		C		6.0301		-0.9776		-1.5129		C.ar		1		UNL1		-0.1972
23		C		6.8687		-1.1471		-0.4359		C.ar		1		UNL1		-0.1305
24		C		6.3325		-1.2084		0.8719		C.ar		1		UNL1		-0.1337
25		C		4.9761		-1.1004		1.0814		C.ar		1		UNL1		-0.1876
26		C		4.0825		-0.9247		-0.0087		C.ar		1		UNL1		0.0864
27		C		2.6691		-0.8090		0.1400		C.ar		1		UNL1		-0.0015
28		BR		1.8640		-0.8897		1.8646		Br		1		UNL1		-0.1035
29		N		0.5665		1.6314		-0.3575		N.ar		1		UNL1		-0.5379
30		H		2.1517		4.9917		-0.4745		H		1		UNL1		0.1600
31		H		2.3384		4.1730		1.0981		H		1		UNL1		0.1644
32		H		2.3577		3.2235		-0.4034		H		1		UNL1		0.2112
33		H		-0.1218		4.6630		0.4201		H		1		UNL1		0.3386
34		H		-3.7894		2.4901		0.3322		H		1		UNL1		0.3456
35		H		-5.9797		2.0069		0.4580		H		1		UNL1		0.1357
36		H		-7.8247		0.3784		0.3246		H		1		UNL1		0.1572
37		H		-4.9994		-2.7279		-0.6156		H		1		UNL1		0.1602
38		H		-3.1452		-1.0939		-0.4820		H		1		UNL1		0.2021
39		H		1.7144		-0.4528		-3.0938		H		1		UNL1		0.1518
40		H		4.1735		-0.6472		-3.4439		H		1		UNL1		0.1422
41		H		6.4303		-0.9299		-2.5228		H		1		UNL1		0.1360
42		H		7.9411		-1.2346		-0.5858		H		1		UNL1		0.1363
43		H		6.9979		-1.3427		1.7202		H		1		UNL1		0.1376
44		H		4.5708		-1.1483		2.0856		H		1		UNL1		0.1568
@<TRIPOS>BOND
1		40		20		1
2		39		19		1
3		41		22		1
4		20		19		ar
5		20		21		ar
6		19		18		ar
7		22		21		ar
8		22		23		ar
9		21		26		ar
10		18		17		1
11		18		27		ar
12		17		16		1
13		37		13		1
14		42		23		1
15		16		15		ar
16		16		29		ar
17		38		14		1
18		30		1		1
19		23		24		ar
20		32		1		1
21		15		5		ar
22		13		14		ar
23		13		10		ar
24		29		3		ar
25		14		7		ar
26		12		11		3
27		11		10		1
28		10		9		ar
29		5		6		1
30		5		4		ar
31		3		4		ar
32		3		2		1
33		26		27		ar
34		26		25		ar
35		7		6		1
36		7		8		ar
37		1		2		1
38		1		31		1
39		6		34		1
40		2		33		1
41		27		28		1
42		9		8		ar
43		9		36		1
44		8		35		1
45		24		25		ar
46		24		43		1
47		25		44		1

