@<TRIPOS>MOLECULE
CFE-2008-ZL-31
 44 47 0 0 0
SMALL
MULLIKEN_CHARGES
****
Gaussian 16 #p B3LYP/6-31G* opt
@<TRIPOS>ATOM
1		C		2.6991		3.5560		0.3336		C.3		1		UNL1		-0.2929
2		N		1.6009		2.6228		0.1642		N.3		1		UNL1		-0.6229
3		C		1.7475		1.2891		0.0271		C.ar		1		UNL1		0.6974
4		N		2.9969		0.7854		0.0269		N.ar		1		UNL1		-0.5637
5		C		3.0399		-0.5437		-0.1151		C.ar		1		UNL1		0.7179
6		N		4.2439		-1.2052		-0.1351		N.pl3		1		UNL1		-0.7774
7		C		5.5662		-0.7687		-0.0309		C.ar		1		UNL1		0.3814
8		C		6.5658		-1.7598		-0.1017		C.ar		1		UNL1		-0.2037
9		C		7.9069		-1.4266		-0.0081		C.ar		1		UNL1		-0.1406
10		C		8.2911		-0.0845		0.1601		C.ar		1		UNL1		0.1326
11		C		9.6744		0.2687		0.2576		C.1		1		UNL1		0.2280
12		N		10.7996		0.5565		0.3369		N.1		1		UNL1		-0.4833
13		C		7.2949		0.9030		0.2309		C.ar		1		UNL1		-0.1552
14		C		5.9482		0.5744		0.1376		C.ar		1		UNL1		-0.1597
15		N		1.9828		-1.3672		-0.2507		N.ar		1		UNL1		-0.5503
16		C		0.8142		-0.7307		-0.2306		C.ar		1		UNL1		0.6741
17		O		-0.2486		-1.5578		-0.3501		O.3		1		UNL1		-0.5369
18		C		-1.5389		-1.0351		-0.4291		C.ar		1		UNL1		0.3585
19		C		-1.9413		-0.3074		-1.5738		C.ar		1		UNL1		-0.1336
20		C		-3.2460		0.1091		-1.6853		C.ar		1		UNL1		-0.2065
21		C		-4.1989		-0.1842		-0.6711		C.ar		1		UNL1		0.1455
22		C		-5.5515		0.2370		-0.7674		C.ar		1		UNL1		-0.2212
23		C		-6.4374		-0.0730		0.2360		C.ar		1		UNL1		0.0788
24		BR		-8.2593		0.4968		0.1061		Br		1		UNL1		-0.1299
25		C		-6.0393		-0.8094		1.3754		C.ar		1		UNL1		-0.1528
26		C		-4.7328		-1.2274		1.4855		C.ar		1		UNL1		-0.1906
27		C		-3.7780		-0.9308		0.4766		C.ar		1		UNL1		0.1359
28		C		-2.4244		-1.3485		0.5711		C.ar		1		UNL1		-0.2371
29		N		0.6073		0.5726		-0.0984		N.ar		1		UNL1		-0.5442
30		H		2.2844		4.5632		0.4108		H		1		UNL1		0.1617
31		H		3.2718		3.3387		1.2422		H		1		UNL1		0.1773
32		H		3.3834		3.5205		-0.5208		H		1		UNL1		0.1786
33		H		0.6467		2.9516		0.1781		H		1		UNL1		0.3476
34		H		4.1112		-2.2026		-0.2498		H		1		UNL1		0.3522
35		H		6.2804		-2.8010		-0.2319		H		1		UNL1		0.1412
36		H		8.6648		-2.2012		-0.0644		H		1		UNL1		0.1599
37		H		7.5836		1.9412		0.3609		H		1		UNL1		0.1564
38		H		5.1863		1.3378		0.1928		H		1		UNL1		0.1888
39		H		-1.2139		-0.0905		-2.3483		H		1		UNL1		0.1466
40		H		-3.5662		0.6679		-2.5608		H		1		UNL1		0.1414
41		H		-5.8769		0.8020		-1.6350		H		1		UNL1		0.1537
42		H		-6.7653		-1.0370		2.1480		H		1		UNL1		0.1558
43		H		-4.4185		-1.7946		2.3580		H		1		UNL1		0.1437
44		H		-2.0857		-1.9208		1.4292		H		1		UNL1		0.1470
@<TRIPOS>BOND
1		40		20		1
2		39		19		1
3		20		19		ar
4		20		21		ar
5		41		22		1
6		19		18		ar
7		22		21		ar
8		22		23		ar
9		21		27		ar
10		32		1		1
11		18		17		1
12		18		28		ar
13		17		16		1
14		15		16		ar
15		15		5		ar
16		34		6		1
17		35		8		1
18		16		29		ar
19		6		5		1
20		6		7		1
21		5		4		ar
22		8		7		ar
23		8		9		ar
24		29		3		ar
25		36		9		1
26		7		14		ar
27		9		10		ar
28		4		3		ar
29		3		2		1
30		24		23		1
31		14		38		1
32		14		13		ar
33		10		13		ar
34		10		11		1
35		2		33		1
36		2		1		1
37		13		37		1
38		23		25		ar
39		11		12		3
40		1		30		1
41		1		31		1
42		27		28		ar
43		27		26		ar
44		28		44		1
45		25		26		ar
46		25		42		1
47		26		43		1

