@<TRIPOS>MOLECULE
CFE-2008-ZL-7
 48 51 0 0 0
SMALL
MULLIKEN_CHARGES
****
Gaussian 16 #p B3LYP/6-31G* opt
@<TRIPOS>ATOM
1		C		0.9369		5.4498		1.3261		C.2		1		UNL1		-0.3307
2		C		0.3825		5.6793		0.1370		C.2		1		UNL1		-0.0701
3		C		0.1618		4.6580		-0.9538		C.3		1		UNL1		-0.1614
4		N		0.7759		3.3695		-0.7028		N.3		1		UNL1		-0.6394
5		C		0.1181		2.2090		-0.4744		C.ar		1		UNL1		0.7051
6		N		-1.2204		2.1932		-0.5270		N.ar		1		UNL1		-0.5785
7		C		-1.7638		0.9843		-0.2940		C.ar		1		UNL1		0.7248
8		N		-3.1358		0.9774		-0.3476		N.pl3		1		UNL1		-0.7764
9		C		-4.0793		-0.0396		-0.1720		C.ar		1		UNL1		0.3797
10		C		-3.7597		-1.3780		0.1210		C.ar		1		UNL1		-0.1600
11		C		-4.7782		-2.3104		0.2755		C.ar		1		UNL1		-0.1547
12		C		-6.1279		-1.9436		0.1447		C.ar		1		UNL1		0.1322
13		C		-7.1667		-2.9147		0.3062		C.1		1		UNL1		0.2282
14		N		-8.0135		-3.7027		0.4370		N.1		1		UNL1		-0.4845
15		C		-6.4437		-0.6054		-0.1480		C.ar		1		UNL1		-0.1406
16		C		-5.4329		0.3289		-0.3031		C.ar		1		UNL1		-0.2055
17		N		-1.0991		-0.1450		-0.0282		N.ar		1		UNL1		-0.5434
18		C		0.2284		0.0185		-0.0092		C.ar		1		UNL1		0.6772
19		O		0.8956		-1.1257		0.2466		O.3		1		UNL1		-0.5366
20		C		2.2885		-1.1130		0.3641		C.ar		1		UNL1		0.3552
21		C		2.8931		-0.5257		1.4996		C.ar		1		UNL1		-0.1353
22		C		4.2558		-0.6128		1.6554		C.ar		1		UNL1		-0.2098
23		C		5.0654		-1.2861		0.6995		C.ar		1		UNL1		0.1471
24		C		6.4747		-1.3914		0.8381		C.ar		1		UNL1		-0.1939
25		C		7.2291		-2.0545		-0.1039		C.ar		1		UNL1		-0.1346
26		C		6.6051		-2.6448		-1.2299		C.ar		1		UNL1		-0.1361
27		C		5.2404		-2.5619		-1.3933		C.ar		1		UNL1		-0.1892
28		C		4.4343		-1.8837		-0.4403		C.ar		1		UNL1		0.1274
29		C		3.0245		-1.7794		-0.5818		C.ar		1		UNL1		-0.2349
30		N		0.9060		1.1351		-0.2152		N.ar		1		UNL1		-0.5430
31		H		1.2829		4.4614		1.6170		H		1		UNL1		0.1434
32		H		1.0565		6.2448		2.0562		H		1		UNL1		0.1470
33		H		0.0430		6.6838		-0.1170		H		1		UNL1		0.1342
34		H		0.5395		5.0591		-1.9061		H		1		UNL1		0.1599
35		H		-0.9087		4.4800		-1.0950		H		1		UNL1		0.2009
36		H		1.7825		3.3075		-0.6297		H		1		UNL1		0.3434
37		H		-3.5061		1.8966		-0.5537		H		1		UNL1		0.3455
38		H		-2.7236		-1.6673		0.2233		H		1		UNL1		0.2019
39		H		-4.5260		-3.3416		0.5015		H		1		UNL1		0.1604
40		H		-7.4817		-0.3065		-0.2519		H		1		UNL1		0.1577
41		H		-5.6886		1.3616		-0.5293		H		1		UNL1		0.1361
42		H		2.2722		-0.0187		2.2303		H		1		UNL1		0.1418
43		H		4.7327		-0.1664		2.5245		H		1		UNL1		0.1361
44		H		6.9500		-0.9380		1.7050		H		1		UNL1		0.1313
45		H		8.3067		-2.1281		0.0138		H		1		UNL1		0.1321
46		H		7.2099		-3.1663		-1.9669		H		1		UNL1		0.1330
47		H		4.7601		-3.0156		-2.2569		H		1		UNL1		0.1336
48		H		2.5245		-2.2308		-1.4335		H		1		UNL1		0.1437
@<TRIPOS>BOND
1		47		27		1
2		46		26		1
3		34		3		1
4		48		29		1
5		27		26		ar
6		27		28		ar
7		26		25		ar
8		35		3		1
9		3		4		1
10		3		2		1
11		4		36		1
12		4		5		1
13		29		28		ar
14		29		20		ar
15		37		8		1
16		41		16		1
17		6		5		ar
18		6		7		ar
19		5		30		ar
20		28		23		ar
21		8		7		1
22		8		9		1
23		16		9		ar
24		16		15		ar
25		7		17		ar
26		40		15		1
27		30		18		ar
28		9		10		ar
29		15		12		ar
30		33		2		1
31		25		45		1
32		25		24		ar
33		17		18		ar
34		18		19		1
35		10		38		1
36		10		11		ar
37		2		1		2
38		12		11		ar
39		12		13		1
40		19		20		1
41		11		39		1
42		13		14		3
43		20		21		ar
44		23		24		ar
45		23		22		ar
46		24		44		1
47		1		31		1
48		1		32		1
49		21		22		ar
50		21		42		1
51		22		43		1

