@<TRIPOS>MOLECULE
CFE-2008-ZL-18
 47 50 0 0 0
SMALL
MULLIKEN_CHARGES
****
Gaussian 16 #p B3LYP/6-31G* opt
@<TRIPOS>ATOM
1		C		-0.9908		3.8092		-0.3584		C.3		1		UNL1		-0.4406
2		C		-0.5495		2.9010		-1.5097		C.3		1		UNL1		-0.1314
3		N		0.7054		2.2032		-1.2492		N.3		1		UNL1		-0.6276
4		C		0.8138		0.9967		-0.6539		C.ar		1		UNL1		0.7064
5		N		2.0697		0.5502		-0.4220		N.ar		1		UNL1		-0.5676
6		C		2.1193		-0.6542		0.1465		C.ar		1		UNL1		0.7207
7		N		3.3246		-1.2422		0.4457		N.pl3		1		UNL1		-0.7773
8		C		4.6471		-0.8297		0.2714		C.ar		1		UNL1		0.3820
9		C		5.6492		-1.7145		0.7175		C.ar		1		UNL1		-0.2043
10		C		6.9906		-1.3951		0.5875		C.ar		1		UNL1		-0.1403
11		C		7.3725		-0.1742		0.0040		C.ar		1		UNL1		0.1322
12		C		8.7561		0.1639		-0.1342		C.1		1		UNL1		0.2280
13		N		9.8817		0.4390		-0.2468		N.1		1		UNL1		-0.4835
14		C		6.3738		0.7075		-0.4408		C.ar		1		UNL1		-0.1531
15		C		5.0268		0.3921		-0.3128		C.ar		1		UNL1		-0.1544
16		N		1.0612		-1.4206		0.4909		N.ar		1		UNL1		-0.5505
17		C		-0.1054		-0.8565		0.2060		C.ar		1		UNL1		0.6717
18		O		-1.1704		-1.6242		0.5356		O.3		1		UNL1		-0.5370
19		C		-2.4639		-1.1358		0.3690		C.ar		1		UNL1		0.3639
20		C		-2.9316		-0.0958		1.2038		C.ar		1		UNL1		-0.1411
21		C		-4.2407		0.3053		1.0983		C.ar		1		UNL1		-0.1598
22		CL		-4.7894		1.6086		2.1500		Cl		1		UNL1		-0.0117
23		C		-5.1528		-0.2969		0.1810		C.ar		1		UNL1		0.1497
24		C		-6.5122		0.0876		0.0438		C.ar		1		UNL1		-0.1964
25		C		-7.3343		-0.5447		-0.8622		C.ar		1		UNL1		-0.1336
26		C		-6.8383		-1.5916		-1.6740		C.ar		1		UNL1		-0.1313
27		C		-5.5253		-1.9878		-1.5639		C.ar		1		UNL1		-0.1912
28		C		-4.6458		-1.3592		-0.6421		C.ar		1		UNL1		0.1296
29		C		-3.2889		-1.7615		-0.5281		C.ar		1		UNL1		-0.2304
30		N		-0.3190		0.3304		-0.3524		N.ar		1		UNL1		-0.5414
31		H		-1.1658		3.2218		0.5481		H		1		UNL1		0.1687
32		H		-1.9233		4.3231		-0.6178		H		1		UNL1		0.1546
33		H		-0.2333		4.5699		-0.1374		H		1		UNL1		0.1446
34		H		-1.3093		2.1419		-1.7056		H		1		UNL1		0.1935
35		H		-0.4142		3.4828		-2.4283		H		1		UNL1		0.1507
36		H		1.5805		2.6878		-1.3928		H		1		UNL1		0.3376
37		H		3.1927		-2.1499		0.8749		H		1		UNL1		0.3522
38		H		5.3654		-2.6615		1.1706		H		1		UNL1		0.1409
39		H		7.7505		-2.0869		0.9360		H		1		UNL1		0.1597
40		H		6.6607		1.6518		-0.8927		H		1		UNL1		0.1567
41		H		4.2629		1.0736		-0.6567		H		1		UNL1		0.1783
42		H		-2.2608		0.3706		1.9145		H		1		UNL1		0.1637
43		H		-6.8972		0.8884		0.6649		H		1		UNL1		0.1581
44		H		-8.3724		-0.2378		-0.9540		H		1		UNL1		0.1376
45		H		-7.4977		-2.0825		-2.3843		H		1		UNL1		0.1373
46		H		-5.1373		-2.7919		-2.1840		H		1		UNL1		0.1379
47		H		-2.9036		-2.5671		-1.1449		H		1		UNL1		0.1487
@<TRIPOS>BOND
1		35		2		1
2		45		26		1
3		46		27		1
4		34		2		1
5		26		27		ar
6		26		25		ar
7		27		28		ar
8		2		3		1
9		2		1		1
10		36		3		1
11		3		4		1
12		47		29		1
13		44		25		1
14		40		14		1
15		25		24		ar
16		41		15		1
17		4		5		ar
18		4		30		ar
19		28		29		ar
20		28		23		ar
21		32		1		1
22		29		19		ar
23		14		15		ar
24		14		11		ar
25		5		6		ar
26		1		33		1
27		1		31		1
28		30		17		ar
29		15		8		ar
30		13		12		3
31		12		11		1
32		11		10		ar
33		24		23		ar
34		24		43		1
35		6		7		1
36		6		16		ar
37		23		21		ar
38		17		16		ar
39		17		18		1
40		8		7		1
41		8		9		ar
42		19		18		1
43		19		20		ar
44		7		37		1
45		10		9		ar
46		10		39		1
47		9		38		1
48		21		20		ar
49		21		22		1
50		20		42		1

