@<TRIPOS>MOLECULE
FXQ-2009-CMC-219-10W
 40 43 0 0 0
SMALL
MULLIKEN_CHARGES
****
Gaussian 16 #p B3LYP/6-31G* opt
@<TRIPOS>ATOM
1		N		-8.6370		2.1249		0.5110		N.1		1		UNL1		-0.4853
2		C		-7.5423		1.7569		0.3633		C.1		1		UNL1		0.2272
3		C		-6.1964		1.3068		0.1811		C.ar		1		UNL1		0.1312
4		C		-5.1467		2.2329		0.0473		C.ar		1		UNL1		-0.1406
5		C		-3.8466		1.7900		-0.1293		C.ar		1		UNL1		-0.2057
6		C		-3.5500		0.4125		-0.1784		C.ar		1		UNL1		0.3826
7		N		-2.2103		0.0677		-0.3618		N.pl3		1		UNL1		-0.7684
8		C		-1.5683		-1.1489		-0.4494		C.ar		1		UNL1		0.7020
9		N		-2.2570		-2.2897		-0.3540		N.ar		1		UNL1		-0.4884
10		C		-1.5247		-3.4125		-0.4496		C.ar		1		UNL1		0.0695
11		C		-0.1538		-3.4240		-0.6329		C.ar		1		UNL1		-0.2129
12		C		0.4433		-2.1559		-0.7183		C.ar		1		UNL1		0.5814
13		O		1.7876		-2.1195		-0.9097		O.3		1		UNL1		-0.5592
14		C		2.4354		-0.8901		-0.9700		C.ar		1		UNL1		0.3295
15		C		2.7067		-0.3529		-2.2468		C.ar		1		UNL1		-0.1504
16		C		3.4264		0.8103		-2.3616		C.ar		1		UNL1		-0.2042
17		C		3.9059		1.4871		-1.2094		C.ar		1		UNL1		0.1540
18		C		4.6518		2.6913		-1.3140		C.ar		1		UNL1		-0.1971
19		C		5.1142		3.3395		-0.1924		C.ar		1		UNL1		-0.1300
20		C		4.8480		2.8056		1.0904		C.ar		1		UNL1		-0.1333
21		C		4.1290		1.6400		1.2316		C.ar		1		UNL1		-0.1874
22		C		3.6372		0.9462		0.0941		C.ar		1		UNL1		0.0866
23		C		2.8882		-0.2650		0.1710		C.ar		1		UNL1		-0.0056
24		BR		2.4903		-1.0561		1.8580		Br		1		UNL1		-0.1030
25		N		-0.2342		-1.0275		-0.6338		N.ar		1		UNL1		-0.5584
26		C		-4.5986		-0.5163		-0.0443		C.ar		1		UNL1		-0.1591
27		C		-5.9008		-0.0655		0.1326		C.ar		1		UNL1		-0.1535
28		H		-5.3586		3.2966		0.0831		H		1		UNL1		0.1575
29		H		-3.0428		2.5155		-0.2313		H		1		UNL1		0.1374
30		H		-1.5603		0.8395		-0.4413		H		1		UNL1		0.3496
31		H		-2.0793		-4.3453		-0.3718		H		1		UNL1		0.1571
32		H		0.4296		-4.3328		-0.7041		H		1		UNL1		0.1600
33		H		2.3384		-0.8848		-3.1179		H		1		UNL1		0.1509
34		H		3.6391		1.2273		-3.3421		H		1		UNL1		0.1439
35		H		4.8506		3.0918		-2.3051		H		1		UNL1		0.1375
36		H		5.6832		4.2598		-0.2879		H		1		UNL1		0.1383
37		H		5.2149		3.3207		1.9739		H		1		UNL1		0.1397
38		H		3.9278		1.2359		2.2172		H		1		UNL1		0.1582
39		H		-4.3777		-1.5732		-0.0798		H		1		UNL1		0.1903
40		H		-6.7051		-0.7871		0.2355		H		1		UNL1		0.1580
@<TRIPOS>BOND
1		34		16		1
2		33		15		1
3		16		15		ar
4		16		17		ar
5		35		18		1
6		15		14		ar
7		18		17		ar
8		18		19		ar
9		17		22		ar
10		14		13		1
11		14		23		ar
12		13		12		1
13		12		25		ar
14		12		11		ar
15		32		11		1
16		25		8		ar
17		11		10		ar
18		10		31		1
19		10		9		ar
20		8		7		1
21		8		9		ar
22		30		7		1
23		7		6		1
24		36		19		1
25		29		5		1
26		19		20		ar
27		6		5		ar
28		6		26		ar
29		5		4		ar
30		39		26		1
31		26		27		ar
32		4		28		1
33		4		3		ar
34		22		23		ar
35		22		21		ar
36		27		3		ar
37		27		40		1
38		23		24		1
39		3		2		1
40		2		1		3
41		20		21		ar
42		20		37		1
43		21		38		1

