@<TRIPOS>MOLECULE
FXQ-2009-CMC-219-10C
 40 43 0 0 0
SMALL
MULLIKEN_CHARGES
****
Gaussian 16 #p B3LYP/6-31G* opt
@<TRIPOS>ATOM
1		N		9.0824		0.3641		-0.6270		N.1		1		UNL1		-0.4858
2		C		7.9436		0.3092		-0.3912		C.1		1		UNL1		0.2269
3		C		6.5444		0.2422		-0.0999		C.ar		1		UNL1		0.1309
4		C		5.6273		-0.1656		-1.0826		C.ar		1		UNL1		-0.1535
5		C		4.2661		-0.2352		-0.8137		C.ar		1		UNL1		-0.1595
6		C		3.7877		0.1076		0.4647		C.ar		1		UNL1		0.3826
7		N		2.4444		0.0731		0.8395		N.pl3		1		UNL1		-0.7666
8		C		1.2954		-0.2662		0.1561		C.ar		1		UNL1		0.6979
9		N		1.3601		-0.6565		-1.1236		N.ar		1		UNL1		-0.4848
10		C		0.1806		-0.9595		-1.6824		C.ar		1		UNL1		0.0668
11		C		-1.0346		-0.8909		-1.0184		C.ar		1		UNL1		-0.2168
12		C		-0.9601		-0.4675		0.3201		C.ar		1		UNL1		0.5398
13		O		-2.0407		-0.3254		1.1324		O.3		1		UNL1		-0.5333
14		C		-3.3120		-0.6678		0.6701		C.ar		1		UNL1		0.2402
15		C		-3.7241		-1.9784		0.7190		C.ar		1		UNL1		-0.1587
16		C		-5.0380		-2.3140		0.3143		C.ar		1		UNL1		-0.1496
17		C		-5.9038		-1.3369		-0.1212		C.ar		1		UNL1		-0.1779
18		C		-5.5008		0.0250		-0.1675		C.ar		1		UNL1		0.1220
19		C		-6.3737		1.0568		-0.6060		C.ar		1		UNL1		-0.1948
20		C		-5.9587		2.3687		-0.6362		C.ar		1		UNL1		-0.1292
21		C		-4.6482		2.7134		-0.2243		C.ar		1		UNL1		-0.1350
22		C		-3.7722		1.7423		0.2059		C.ar		1		UNL1		-0.1883
23		C		-4.1725		0.3803		0.2402		C.ar		1		UNL1		0.1130
24		N		0.1834		-0.1555		0.9087		N.ar		1		UNL1		-0.5460
25		C		4.7085		0.5169		1.4511		C.ar		1		UNL1		-0.2058
26		C		6.0641		0.5841		1.1768		C.ar		1		UNL1		-0.1406
27		H		5.9895		-0.4314		-2.0708		H		1		UNL1		0.1573
28		H		3.5663		-0.5498		-1.5743		H		1		UNL1		0.1894
29		H		2.2420		0.3456		1.7932		H		1		UNL1		0.3491
30		H		0.2177		-1.2744		-2.7236		H		1		UNL1		0.1565
31		H		-1.9690		-1.1426		-1.5006		H		1		UNL1		0.1647
32		H		-3.0381		-2.7412		1.0736		H		1		UNL1		0.1487
33		H		-5.3564		-3.3516		0.3540		H		1		UNL1		0.1419
34		H		-6.9131		-1.5945		-0.4316		H		1		UNL1		0.1366
35		H		-7.3809		0.7898		-0.9166		H		1		UNL1		0.1364
36		H		-6.6379		3.1469		-0.9732		H		1		UNL1		0.1374
37		H		-4.3349		3.7534		-0.2458		H		1		UNL1		0.1385
38		H		-2.7724		2.0054		0.5343		H		1		UNL1		0.1546
39		H		4.3488		0.7839		2.4422		H		1		UNL1		0.1374
40		H		6.7596		0.9012		1.9472		H		1		UNL1		0.1574
@<TRIPOS>BOND
1		30		10		1
2		27		4		1
3		10		9		ar
4		10		11		ar
5		28		5		1
6		31		11		1
7		9		8		ar
8		4		5		ar
9		4		3		ar
10		11		12		ar
11		36		20		1
12		35		19		1
13		5		6		ar
14		20		19		ar
15		20		21		ar
16		1		2		3
17		19		18		ar
18		34		17		1
19		2		3		1
20		37		21		1
21		21		22		ar
22		18		17		ar
23		18		23		ar
24		17		16		ar
25		3		26		ar
26		8		7		1
27		8		24		ar
28		22		23		ar
29		22		38		1
30		23		14		ar
31		16		33		1
32		16		15		ar
33		12		24		ar
34		12		13		1
35		6		7		1
36		6		25		ar
37		14		15		ar
38		14		13		1
39		15		32		1
40		7		29		1
41		26		25		ar
42		26		40		1
43		25		39		1

