@<TRIPOS>MOLECULE
FXQ-2009-CMC-219-10N
 43 46 0 0 0
SMALL
MULLIKEN_CHARGES
****
Gaussian 16 #p B3LYP/6-31G* opt
@<TRIPOS>ATOM
1		C		-0.3838		2.9099		-0.2305		C.3		1		UNL1		-0.5126
2		C		-0.4848		1.4096		-0.1603		C.ar		1		UNL1		0.3451
3		C		0.6469		0.5979		-0.1620		C.ar		1		UNL1		-0.2189
4		C		0.4235		-0.7853		-0.0948		C.ar		1		UNL1		0.1280
5		S		1.7061		-2.0267		-0.0730		S.3		1		UNL1		0.1753
6		C		3.2176		-1.0831		-0.2866		C.ar		1		UNL1		-0.1361
7		C		3.6220		-0.6688		-1.5862		C.ar		1		UNL1		-0.1428
8		C		4.8124		-0.0028		-1.7594		C.ar		1		UNL1		-0.1828
9		C		5.6669		0.2737		-0.6573		C.ar		1		UNL1		0.1356
10		C		6.9043		0.9543		-0.8064		C.ar		1		UNL1		-0.1904
11		C		7.7071		1.2018		0.2847		C.ar		1		UNL1		-0.1313
12		C		7.3102		0.7794		1.5774		C.ar		1		UNL1		-0.1349
13		C		6.1171		0.1164		1.7556		C.ar		1		UNL1		-0.1859
14		C		5.2660		-0.1540		0.6503		C.ar		1		UNL1		0.1409
15		C		4.0271		-0.8320		0.8032		C.ar		1		UNL1		-0.2046
16		N		-0.7975		-1.3071		-0.0277		N.ar		1		UNL1		-0.5264
17		C		-1.8205		-0.4291		-0.0280		C.ar		1		UNL1		0.6839
18		N		-3.0548		-1.0436		0.0476		N.pl3		1		UNL1		-0.7651
19		C		-4.3556		-0.5437		0.0735		C.ar		1		UNL1		0.3834
20		C		-4.6833		0.8244		0.0214		C.ar		1		UNL1		-0.1600
21		C		-6.0153		1.2172		0.0535		C.ar		1		UNL1		-0.1538
22		C		-7.0520		0.2730		0.1376		C.ar		1		UNL1		0.1305
23		C		-8.4194		0.6923		0.1698		C.1		1		UNL1		0.2262
24		N		-9.5325		1.0329		0.1960		N.1		1		UNL1		-0.4866
25		C		-6.7226		-1.0933		0.1896		C.ar		1		UNL1		-0.1408
26		C		-5.3968		-1.4914		0.1580		C.ar		1		UNL1		-0.2057
27		N		-1.7301		0.9019		-0.0940		N.ar		1		UNL1		-0.5347
28		H		-0.9175		3.2820		-1.1124		H		1		UNL1		0.1792
29		H		0.6555		3.2455		-0.2790		H		1		UNL1		0.1592
30		H		-0.8609		3.3607		0.6470		H		1		UNL1		0.1796
31		H		1.6430		1.0172		-0.2100		H		1		UNL1		0.1567
32		H		2.9823		-0.8879		-2.4354		H		1		UNL1		0.1550
33		H		5.1196		0.3142		-2.7531		H		1		UNL1		0.1409
34		H		7.2085		1.2770		-1.7992		H		1		UNL1		0.1372
35		H		8.6517		1.7235		0.1577		H		1		UNL1		0.1386
36		H		7.9537		0.9811		2.4292		H		1		UNL1		0.1388
37		H		5.8093		-0.2102		2.7459		H		1		UNL1		0.1394
38		H		3.7199		-1.1559		1.7938		H		1		UNL1		0.1567
39		H		-2.9639		-2.0508		0.0906		H		1		UNL1		0.3480
40		H		-3.8904		1.5552		-0.0434		H		1		UNL1		0.1853
41		H		-6.2605		2.2739		0.0129		H		1		UNL1		0.1558
42		H		-7.5115		-1.8356		0.2547		H		1		UNL1		0.1569
43		H		-5.1546		-2.5508		0.1989		H		1		UNL1		0.1372
@<TRIPOS>BOND
1		33		8		1
2		32		7		1
3		34		10		1
4		8		7		ar
5		8		9		ar
6		7		6		ar
7		28		1		1
8		10		9		ar
9		10		11		ar
10		9		14		ar
11		6		5		1
12		6		15		ar
13		29		1		1
14		1		2		1
15		1		30		1
16		31		3		1
17		3		2		ar
18		3		4		ar
19		2		27		ar
20		4		5		1
21		4		16		ar
22		27		17		ar
23		40		20		1
24		17		16		ar
25		17		18		1
26		41		21		1
27		20		21		ar
28		20		19		ar
29		18		19		1
30		18		39		1
31		21		22		ar
32		19		26		ar
33		22		23		1
34		22		25		ar
35		35		11		1
36		26		25		ar
37		26		43		1
38		23		24		3
39		25		42		1
40		11		12		ar
41		14		15		ar
42		14		13		ar
43		15		38		1
44		12		13		ar
45		12		36		1
46		13		37		1

