@<TRIPOS>MOLECULE
FXQ-2010-BMC-2370-12B
 37 39 0 0 0
SMALL
MULLIKEN_CHARGES
****
Gaussian 16 #p B3LYP/6-31G* opt
@<TRIPOS>ATOM
1		N		-8.8311		-0.4407		-0.0016		N.1		1		UNL1		-0.4859
2		C		-7.6805		-0.2650		-0.0283		C.1		1		UNL1		0.2268
3		C		-6.2668		-0.0477		-0.0620		C.ar		1		UNL1		0.1307
4		C		-5.3761		-1.0718		0.2997		C.ar		1		UNL1		-0.1533
5		C		-4.0012		-0.8748		0.2711		C.ar		1		UNL1		-0.1604
6		C		-3.4810		0.3713		-0.1266		C.ar		1		UNL1		0.3835
7		N		-2.1216		0.6744		-0.1919		N.pl3		1		UNL1		-0.7681
8		C		-0.9859		-0.0599		0.0826		C.ar		1		UNL1		0.6944
9		N		-1.0901		-1.3313		0.5026		N.ar		1		UNL1		-0.4749
10		C		0.0719		-1.9470		0.7401		C.ar		1		UNL1		0.0705
11		C		1.3102		-1.3397		0.5702		C.ar		1		UNL1		-0.2060
12		C		1.2990		-0.0069		0.1248		C.ar		1		UNL1		0.3091
13		C		2.5711		0.7465		-0.0657		C.2		1		UNL1		0.2056
14		N		2.4679		2.0321		-0.0552		N.2		1		UNL1		-0.1932
15		O		3.6835		2.6645		-0.2656		O.2		1		UNL1		-0.4797
16		C		3.8483		0.0018		-0.2550		C.ar		1		UNL1		-0.0038
17		C		4.0184		-0.8793		-1.3340		C.ar		1		UNL1		-0.1586
18		C		5.2190		-1.5617		-1.5257		C.ar		1		UNL1		-0.1337
19		C		6.2737		-1.3786		-0.6287		C.ar		1		UNL1		-0.1241
20		C		6.1272		-0.5170		0.4584		C.ar		1		UNL1		-0.1990
21		C		4.9230		0.1552		0.6266		C.ar		1		UNL1		0.3673
22		F		4.7839		0.9661		1.6917		F		1		UNL1		-0.2825
23		N		0.1499		0.6288		-0.1253		N.ar		1		UNL1		-0.5412
24		C		-4.3758		1.3994		-0.4894		C.ar		1		UNL1		-0.2054
25		C		-5.7452		1.1966		-0.4587		C.ar		1		UNL1		-0.1405
26		H		-5.7699		-2.0354		0.6076		H		1		UNL1		0.1572
27		H		-3.3231		-1.6676		0.5514		H		1		UNL1		0.1881
28		H		-1.8876		1.6122		-0.4933		H		1		UNL1		0.3497
29		H		0.0014		-2.9771		1.0853		H		1		UNL1		0.1559
30		H		2.2318		-1.8666		0.7804		H		1		UNL1		0.1599
31		H		3.4444		3.6027		-0.1922		H		1		UNL1		0.4278
32		H		3.1979		-1.0170		-2.0325		H		1		UNL1		0.1496
33		H		5.3309		-2.2315		-2.3729		H		1		UNL1		0.1412
34		H		7.2114		-1.9081		-0.7705		H		1		UNL1		0.1453
35		H		6.9240		-0.3581		1.1775		H		1		UNL1		0.1528
36		H		-3.9843		2.3660		-0.7978		H		1		UNL1		0.1374
37		H		-6.4198		1.9984		-0.7410		H		1		UNL1		0.1573
@<TRIPOS>BOND
1		33		18		1
2		32		17		1
3		18		17		ar
4		18		19		ar
5		17		16		ar
6		36		24		1
7		34		19		1
8		37		25		1
9		19		20		ar
10		28		7		1
11		24		25		ar
12		24		6		ar
13		25		3		ar
14		15		31		1
15		15		14		1
16		16		13		1
17		16		21		ar
18		7		6		1
19		7		8		1
20		6		5		ar
21		23		8		ar
22		23		12		ar
23		13		14		2
24		13		12		1
25		3		2		1
26		3		4		ar
27		2		1		3
28		8		9		ar
29		12		11		ar
30		5		4		ar
31		5		27		1
32		4		26		1
33		20		21		ar
34		20		35		1
35		9		10		ar
36		11		10		ar
37		11		30		1
38		21		22		1
39		10		29		1

