@<TRIPOS>MOLECULE
FXQ-2009-CMC-219-10P
 40 43 0 0 0
SMALL
MULLIKEN_CHARGES
****
Gaussian 16 #p B3LYP/6-31G* opt
@<TRIPOS>ATOM
1		N		-9.5462		-1.1990		-0.1054		N.1		1		UNL1		-0.4859
2		C		-8.4337		-0.8558		-0.1021		C.1		1		UNL1		0.2268
3		C		-7.0669		-0.4326		-0.0982		C.ar		1		UNL1		0.1308
4		C		-6.7405		0.9273		-0.2459		C.ar		1		UNL1		-0.1406
5		C		-5.4154		1.3293		-0.2412		C.ar		1		UNL1		-0.2056
6		C		-4.3730		0.3917		-0.0895		C.ar		1		UNL1		0.3829
7		N		-3.0725		0.8957		-0.0981		N.pl3		1		UNL1		-0.7599
8		C		-1.8388		0.2907		0.0216		C.ar		1		UNL1		0.6843
9		N		-1.7464		-1.0356		0.1828		N.ar		1		UNL1		-0.4809
10		C		-0.4975		-1.5102		0.2836		C.ar		1		UNL1		0.0743
11		C		0.6404		-0.7180		0.2308		C.ar		1		UNL1		-0.1834
12		C		0.4116		0.6578		0.0642		C.ar		1		UNL1		0.1267
13		S		1.6864		1.9010		-0.0460		S.3		1		UNL1		0.1788
14		C		3.2014		0.9793		0.2304		C.ar		1		UNL1		-0.1383
15		C		3.6138		0.6677		1.5559		C.ar		1		UNL1		-0.1431
16		C		4.8057		0.0173		1.7728		C.ar		1		UNL1		-0.1822
17		C		5.6533		-0.3443		0.6901		C.ar		1		UNL1		0.1357
18		C		6.8917		-1.0115		0.8842		C.ar		1		UNL1		-0.1901
19		C		7.6876		-1.3434		-0.1894		C.ar		1		UNL1		-0.1311
20		C		7.2826		-1.0229		-1.5086		C.ar		1		UNL1		-0.1347
21		C		6.0883		-0.3755		-1.7305		C.ar		1		UNL1		-0.1857
22		C		5.2440		-0.0198		-0.6443		C.ar		1		UNL1		0.1410
23		C		4.0041		0.6445		-0.8418		C.ar		1		UNL1		-0.2041
24		N		-0.8139		1.1640		-0.0403		N.ar		1		UNL1		-0.5211
25		C		-4.6974		-0.9698		0.0587		C.ar		1		UNL1		-0.1597
26		C		-6.0287		-1.3666		0.0531		C.ar		1		UNL1		-0.1534
27		H		-7.5309		1.6615		-0.3637		H		1		UNL1		0.1574
28		H		-5.1752		2.3837		-0.3562		H		1		UNL1		0.1375
29		H		-2.9844		1.8976		-0.2127		H		1		UNL1		0.3487
30		H		-0.4112		-2.5879		0.4121		H		1		UNL1		0.1555
31		H		1.6335		-1.1387		0.3109		H		1		UNL1		0.1631
32		H		2.9794		0.9520		2.3895		H		1		UNL1		0.1554
33		H		5.1191		-0.2217		2.7862		H		1		UNL1		0.1416
34		H		7.2021		-1.2561		1.8971		H		1		UNL1		0.1377
35		H		8.6330		-1.8540		-0.0281		H		1		UNL1		0.1392
36		H		7.9208		-1.2906		-2.3460		H		1		UNL1		0.1393
37		H		5.7741		-0.1272		-2.7414		H		1		UNL1		0.1397
38		H		3.6907		0.8906		-1.8526		H		1		UNL1		0.1572
39		H		-3.9041		-1.6937		0.1756		H		1		UNL1		0.1891
40		H		-6.2717		-2.4183		0.1677		H		1		UNL1		0.1572
@<TRIPOS>BOND
1		37		21		1
2		36		20		1
3		38		23		1
4		21		20		ar
5		21		22		ar
6		20		19		ar
7		23		22		ar
8		23		14		ar
9		22		17		ar
10		27		4		1
11		28		5		1
12		4		5		ar
13		4		3		ar
14		5		6		ar
15		29		7		1
16		19		35		1
17		19		18		ar
18		1		2		3
19		2		3		1
20		3		26		ar
21		7		6		1
22		7		8		1
23		6		25		ar
24		13		12		1
25		13		14		1
26		24		8		ar
27		24		12		ar
28		8		9		ar
29		26		25		ar
30		26		40		1
31		25		39		1
32		12		11		ar
33		9		10		ar
34		14		15		ar
35		11		10		ar
36		11		31		1
37		10		30		1
38		17		18		ar
39		17		16		ar
40		18		34		1
41		15		16		ar
42		15		32		1
43		16		33		1

