@<TRIPOS>MOLECULE
FXQ-2010-BMC-2370-12L
 40 42 0 0 0
SMALL
MULLIKEN_CHARGES
****
Gaussian 16 #p B3LYP/6-31G* opt
@<TRIPOS>ATOM
1		C		-5.4757		-2.8041		1.4185		C.3		1		UNL1		-0.5294
2		C		-4.5455		-2.1215		0.4420		C.ar		1		UNL1		0.1673
3		C		-4.0912		-2.7887		-0.7035		C.ar		1		UNL1		-0.1701
4		C		-3.2517		-2.1502		-1.6158		C.ar		1		UNL1		-0.1402
5		C		-2.8425		-0.8369		-1.3943		C.ar		1		UNL1		-0.1432
6		C		-3.2900		-0.1473		-0.2593		C.ar		1		UNL1		0.1325
7		C		-2.8688		1.2611		-0.0227		C.2		1		UNL1		0.1822
8		N		-3.6552		2.2568		0.2191		N.2		1		UNL1		-0.2340
9		O		-5.0028		1.9178		0.2139		O.2		1		UNL1		-0.4807
10		C		-1.4216		1.6323		-0.0399		C.ar		1		UNL1		0.3010
11		C		-0.9981		2.9738		-0.0826		C.ar		1		UNL1		-0.1823
12		C		0.3704		3.1877		-0.0752		C.ar		1		UNL1		0.0658
13		N		1.2764		2.1993		-0.0348		N.ar		1		UNL1		-0.4777
14		C		0.7667		0.9626		0.0002		C.ar		1		UNL1		0.6930
15		N		1.5997		-0.1374		0.0443		N.pl3		1		UNL1		-0.7685
16		C		2.9875		-0.2670		0.0655		C.ar		1		UNL1		0.3832
17		C		3.5000		-1.5798		0.1222		C.ar		1		UNL1		-0.2057
18		C		4.8648		-1.8118		0.1459		C.ar		1		UNL1		-0.1407
19		C		5.7659		-0.7326		0.1135		C.ar		1		UNL1		0.1307
20		C		7.1775		-0.9646		0.1375		C.1		1		UNL1		0.2267
21		N		8.3259		-1.1550		0.1568		N.1		1		UNL1		-0.4859
22		C		5.2559		0.5751		0.0572		C.ar		1		UNL1		-0.1534
23		C		3.8878		0.8147		0.0330		C.ar		1		UNL1		-0.1605
24		N		-0.5407		0.6307		-0.0010		N.ar		1		UNL1		-0.5629
25		C		-4.1385		-0.7996		0.6462		C.ar		1		UNL1		-0.1908
26		H		-5.4455		-2.3251		2.4025		H		1		UNL1		0.1581
27		H		-5.2161		-3.8606		1.5483		H		1		UNL1		0.1587
28		H		-6.5159		-2.7670		1.0685		H		1		UNL1		0.1683
29		H		-4.3970		-3.8177		-0.8801		H		1		UNL1		0.1254
30		H		-2.9075		-2.6811		-2.4994		H		1		UNL1		0.1318
31		H		-2.1775		-0.3474		-2.0985		H		1		UNL1		0.1338
32		H		-5.4289		2.7714		0.3942		H		1		UNL1		0.4243
33		H		-1.7102		3.7868		-0.1191		H		1		UNL1		0.1647
34		H		0.7755		4.1975		-0.1074		H		1		UNL1		0.1545
35		H		1.0703		-0.9999		0.0731		H		1		UNL1		0.3490
36		H		2.8127		-2.4223		0.1481		H		1		UNL1		0.1370
37		H		5.2427		-2.8282		0.1898		H		1		UNL1		0.1570
38		H		5.9443		1.4140		0.0320		H		1		UNL1		0.1574
39		H		3.5030		1.8234		-0.0100		H		1		UNL1		0.1891
40		H		-4.4862		-0.2659		1.5251		H		1		UNL1		0.1345
@<TRIPOS>BOND
1		30		4		1
2		31		5		1
3		4		5		ar
4		4		3		ar
5		5		6		ar
6		29		3		1
7		3		2		ar
8		6		7		1
9		6		25		ar
10		33		11		1
11		34		12		1
12		11		12		ar
13		11		10		ar
14		12		13		ar
15		10		7		1
16		10		24		ar
17		13		14		ar
18		7		8		2
19		39		23		1
20		24		14		ar
21		14		15		1
22		38		22		1
23		23		22		ar
24		23		16		ar
25		15		16		1
26		15		35		1
27		22		19		ar
28		16		17		ar
29		19		20		1
30		19		18		ar
31		17		18		ar
32		17		36		1
33		20		21		3
34		18		37		1
35		9		8		1
36		9		32		1
37		2		25		ar
38		2		1		1
39		25		40		1
40		28		1		1
41		1		27		1
42		1		26		1

