@<TRIPOS>MOLECULE
FXQ-2009-CMC-219-10Z
 40 43 0 0 0
SMALL
MULLIKEN_CHARGES
****
Gaussian 16 #p B3LYP/6-31G* opt
@<TRIPOS>ATOM
1		N		-11.0898		0.0842		1.1689		N.1		1		UNL1		-0.4850
2		C		-9.9722		0.0992		0.8430		C.1		1		UNL1		0.2273
3		C		-8.5991		0.1177		0.4409		C.ar		1		UNL1		0.1313
4		C		-8.2438		-0.1356		-0.8959		C.ar		1		UNL1		-0.1405
5		C		-6.9128		-0.1154		-1.2777		C.ar		1		UNL1		-0.2056
6		C		-5.8938		0.1572		-0.3422		C.ar		1		UNL1		0.3823
7		N		-4.5847		0.1559		-0.8261		N.pl3		1		UNL1		-0.7668
8		C		-3.3677		0.3735		-0.2171		C.ar		1		UNL1		0.7005
9		N		-3.3043		0.6458		1.0930		N.ar		1		UNL1		-0.4836
10		C		-2.0687		0.8365		1.5734		C.ar		1		UNL1		0.0679
11		C		-0.9170		0.7657		0.8040		C.ar		1		UNL1		-0.2121
12		C		-1.1280		0.4750		-0.5532		C.ar		1		UNL1		0.5468
13		O		-0.1251		0.3791		-1.4737		O.3		1		UNL1		-0.5265
14		C		1.1922		0.5578		-1.0895		C.ar		1		UNL1		0.2896
15		C		1.7846		1.8139		-1.3539		C.ar		1		UNL1		-0.1534
16		C		3.1128		2.0221		-1.0766		C.ar		1		UNL1		-0.1979
17		C		3.9093		0.9855		-0.5221		C.ar		1		UNL1		0.1539
18		C		5.2835		1.1932		-0.2307		C.ar		1		UNL1		-0.2248
19		C		6.0358		0.1764		0.3034		C.ar		1		UNL1		0.0844
20		BR		7.8824		0.4602		0.6954		Br		1		UNL1		-0.1146
21		C		5.4696		-1.0893		0.5739		C.ar		1		UNL1		-0.1493
22		C		4.1406		-1.3148		0.2996		C.ar		1		UNL1		-0.1868
23		C		3.3201		-0.2958		-0.2531		C.ar		1		UNL1		0.0971
24		C		1.9389		-0.4747		-0.5581		C.ar		1		UNL1		-0.0137
25		BR		1.0824		-2.1444		-0.2392		Br		1		UNL1		-0.0849
26		N		-2.3275		0.2807		-1.0693		N.ar		1		UNL1		-0.5434
27		C		-6.2469		0.4106		0.9963		C.ar		1		UNL1		-0.1593
28		C		-7.5840		0.3889		1.3729		C.ar		1		UNL1		-0.1534
29		H		-9.0162		-0.3472		-1.6282		H		1		UNL1		0.1581
30		H		-6.6500		-0.3129		-2.3144		H		1		UNL1		0.1381
31		H		-4.4763		-0.0417		-1.8130		H		1		UNL1		0.3501
32		H		-2.0033		1.0579		2.6370		H		1		UNL1		0.1582
33		H		0.0666		0.9215		1.2254		H		1		UNL1		0.1618
34		H		1.1634		2.5913		-1.7867		H		1		UNL1		0.1612
35		H		3.5707		2.9855		-1.2810		H		1		UNL1		0.1524
36		H		5.7289		2.1613		-0.4348		H		1		UNL1		0.1608
37		H		6.0867		-1.8746		0.9960		H		1		UNL1		0.1635
38		H		3.7048		-2.2853		0.5071		H		1		UNL1		0.1688
39		H		-5.4713		0.6196		1.7187		H		1		UNL1		0.1895
40		H		-7.8495		0.5853		2.4070		H		1		UNL1		0.1579
@<TRIPOS>BOND
1		30		5		1
2		31		7		1
3		34		15		1
4		29		4		1
5		13		14		1
6		13		12		1
7		15		14		ar
8		15		16		ar
9		35		16		1
10		5		4		ar
11		5		6		ar
12		14		24		ar
13		16		17		ar
14		26		12		ar
15		26		8		ar
16		4		3		ar
17		7		6		1
18		7		8		1
19		24		23		ar
20		24		25		1
21		12		11		ar
22		17		23		ar
23		17		18		ar
24		36		18		1
25		6		27		ar
26		23		22		ar
27		18		19		ar
28		8		9		ar
29		22		38		1
30		22		21		ar
31		19		21		ar
32		19		20		1
33		3		2		1
34		3		28		ar
35		21		37		1
36		11		33		1
37		11		10		ar
38		2		1		3
39		27		28		ar
40		27		39		1
41		9		10		ar
42		28		40		1
43		10		32		1

