@<TRIPOS>MOLECULE
FXQ-2009-CMC-219-10B
 43 46 0 0 0
SMALL
MULLIKEN_CHARGES
****
Gaussian 16 #p B3LYP/6-31G* opt
@<TRIPOS>ATOM
1		C		-1.7652		4.1893		0.2823		C.3		1		UNL1		-0.5193
2		C		-0.8068		3.0396		0.1465		C.ar		1		UNL1		0.0844
3		C		0.5621		3.1461		0.3397		C.ar		1		UNL1		0.0131
4		N		1.4353		2.1310		0.2209		N.ar		1		UNL1		-0.4875
5		C		0.9000		0.9550		-0.1086		C.ar		1		UNL1		0.6974
6		N		1.6921		-0.1661		-0.2584		N.pl3		1		UNL1		-0.7702
7		C		3.0654		-0.3675		-0.1297		C.ar		1		UNL1		0.3832
8		C		3.5380		-1.6770		-0.3553		C.ar		1		UNL1		-0.2063
9		C		4.8860		-1.9759		-0.2522		C.ar		1		UNL1		-0.1408
10		C		5.8097		-0.9693		0.0817		C.ar		1		UNL1		0.1304
11		C		7.2041		-1.2706		0.1898		C.1		1		UNL1		0.2263
12		N		8.3386		-1.5174		0.2774		N.1		1		UNL1		-0.4866
13		C		5.3392		0.3350		0.3066		C.ar		1		UNL1		-0.1537
14		C		3.9881		0.6416		0.2048		C.ar		1		UNL1		-0.1603
15		N		-0.4099		0.7081		-0.3287		N.ar		1		UNL1		-0.5582
16		C		-1.2264		1.7352		-0.1994		C.ar		1		UNL1		0.5256
17		O		-2.5593		1.5656		-0.3994		O.3		1		UNL1		-0.5678
18		C		-3.0495		0.3133		-0.7917		C.ar		1		UNL1		0.2874
19		C		-3.1024		0.0022		-2.1276		C.ar		1		UNL1		-0.1550
20		C		-3.6731		-1.2257		-2.5374		C.ar		1		UNL1		-0.1515
21		C		-4.1774		-2.1045		-1.6063		C.ar		1		UNL1		-0.1786
22		C		-4.1400		-1.7952		-0.2201		C.ar		1		UNL1		0.1196
23		C		-4.6588		-2.6788		0.7645		C.ar		1		UNL1		-0.1955
24		C		-4.6153		-2.3540		2.1011		C.ar		1		UNL1		-0.1303
25		C		-4.0514		-1.1237		2.5180		C.ar		1		UNL1		-0.1359
26		C		-3.5381		-0.2417		1.5941		C.ar		1		UNL1		-0.1851
27		C		-3.5644		-0.5538		0.2094		C.ar		1		UNL1		0.1200
28		H		-1.2301		5.1073		0.5451		H		1		UNL1		0.1575
29		H		-2.5166		3.9986		1.0578		H		1		UNL1		0.1714
30		H		-2.3130		4.3675		-0.6504		H		1		UNL1		0.1730
31		H		0.9949		4.1093		0.6076		H		1		UNL1		0.1474
32		H		1.1438		-0.9806		-0.5038		H		1		UNL1		0.3488
33		H		2.8331		-2.4639		-0.6139		H		1		UNL1		0.1363
34		H		5.2333		-2.9888		-0.4290		H		1		UNL1		0.1565
35		H		6.0452		1.1181		0.5649		H		1		UNL1		0.1568
36		H		3.6327		1.6468		0.3794		H		1		UNL1		0.1895
37		H		-2.7058		0.7024		-2.8556		H		1		UNL1		0.1410
38		H		-3.7102		-1.4664		-3.5958		H		1		UNL1		0.1386
39		H		-4.6170		-3.0478		-1.9202		H		1		UNL1		0.1337
40		H		-5.0946		-3.6207		0.4400		H		1		UNL1		0.1345
41		H		-5.0165		-3.0401		2.8420		H		1		UNL1		0.1351
42		H		-4.0263		-0.8755		3.5755		H		1		UNL1		0.1352
43		H		-3.1140		0.7044		1.9130		H		1		UNL1		0.1401
@<TRIPOS>BOND
1		38		20		1
2		37		19		1
3		20		19		ar
4		20		21		ar
5		19		18		ar
6		39		21		1
7		21		22		ar
8		18		17		1
9		18		27		ar
10		30		1		1
11		33		8		1
12		32		6		1
13		34		9		1
14		17		16		1
15		8		9		ar
16		8		7		ar
17		15		16		ar
18		15		5		ar
19		6		7		1
20		6		5		1
21		9		10		ar
22		22		27		ar
23		22		23		ar
24		16		2		ar
25		7		14		ar
26		5		4		ar
27		10		11		1
28		10		13		ar
29		2		1		1
30		2		3		ar
31		11		12		3
32		14		13		ar
33		14		36		1
34		27		26		ar
35		4		3		ar
36		1		28		1
37		1		29		1
38		13		35		1
39		3		31		1
40		40		23		1
41		23		24		ar
42		26		43		1
43		26		25		ar
44		24		25		ar
45		24		41		1
46		25		42		1

