@<TRIPOS>MOLECULE
FXQ-2009-CMC-219-10G
 40 43 0 0 0
SMALL
MULLIKEN_CHARGES
****
Gaussian 16 #p B3LYP/6-31G* opt
@<TRIPOS>ATOM
1		N		7.9687		-2.9982		-0.9776		N.1		1		UNL1		-0.4847
2		C		7.1624		-2.1976		-0.7239		C.1		1		UNL1		0.2276
3		C		6.1731		-1.2122		-0.4113		C.ar		1		UNL1		0.1315
4		C		6.5513		0.0371		0.1118		C.ar		1		UNL1		-0.1405
5		C		5.5882		0.9855		0.4124		C.ar		1		UNL1		-0.2051
6		C		4.2191		0.7214		0.2023		C.ar		1		UNL1		0.3814
7		N		3.3280		1.7423		0.5365		N.pl3		1		UNL1		-0.7646
8		C		1.9554		1.8381		0.4729		C.ar		1		UNL1		0.6953
9		N		1.4800		3.0263		0.9016		N.ar		1		UNL1		-0.4927
10		C		0.1544		3.1545		0.8554		C.ar		1		UNL1		0.0662
11		C		-0.7082		2.1592		0.4006		C.ar		1		UNL1		-0.2184
12		C		-0.0827		0.9790		-0.0151		C.ar		1		UNL1		0.5391
13		O		-0.7451		-0.1156		-0.4805		O.3		1		UNL1		-0.5354
14		C		-2.1284		-0.0795		-0.6382		C.ar		1		UNL1		0.2485
15		C		-2.6734		0.4846		-1.7656		C.ar		1		UNL1		-0.1537
16		C		-4.0725		0.4585		-1.9567		C.ar		1		UNL1		-0.1566
17		C		-4.8843		-0.1362		-1.0188		C.ar		1		UNL1		-0.1301
18		CL		-6.6210		-0.1377		-1.3037		Cl		1		UNL1		-0.0050
19		C		-4.3570		-0.7457		0.1581		C.ar		1		UNL1		0.1254
20		C		-5.1569		-1.3774		1.1467		C.ar		1		UNL1		-0.1971
21		C		-4.5819		-1.9514		2.2580		C.ar		1		UNL1		-0.1280
22		C		-3.1791		-1.9273		2.4370		C.ar		1		UNL1		-0.1302
23		C		-2.3711		-1.3231		1.5015		C.ar		1		UNL1		-0.1899
24		C		-2.9326		-0.7159		0.3475		C.ar		1		UNL1		0.1172
25		N		1.2346		0.8075		0.0177		N.ar		1		UNL1		-0.5344
26		C		3.8379		-0.5281		-0.3215		C.ar		1		UNL1		-0.1629
27		C		4.8094		-1.4753		-0.6209		C.ar		1		UNL1		-0.1539
28		H		7.6009		0.2559		0.2795		H		1		UNL1		0.1581
29		H		5.8924		1.9482		0.8166		H		1		UNL1		0.1376
30		H		3.7396		2.5926		0.9004		H		1		UNL1		0.3489
31		H		-0.2452		4.1060		1.2020		H		1		UNL1		0.1588
32		H		-1.7806		2.2951		0.3771		H		1		UNL1		0.1637
33		H		-2.0271		0.9426		-2.5071		H		1		UNL1		0.1573
34		H		-4.5062		0.9048		-2.8446		H		1		UNL1		0.1642
35		H		-6.2321		-1.4035		1.0122		H		1		UNL1		0.1629
36		H		-5.2109		-2.4311		3.0025		H		1		UNL1		0.1429
37		H		-2.7391		-2.3910		3.3152		H		1		UNL1		0.1433
38		H		-1.2936		-1.3117		1.6239		H		1		UNL1		0.1596
39		H		2.7918		-0.7408		-0.4867		H		1		UNL1		0.1947
40		H		4.5087		-2.4369		-1.0248		H		1		UNL1		0.1592
@<TRIPOS>BOND
1		34		16		1
2		33		15		1
3		16		15		ar
4		16		17		ar
5		15		14		ar
6		18		17		1
7		40		27		1
8		17		19		ar
9		1		2		3
10		2		3		1
11		14		13		1
12		14		24		ar
13		27		3		ar
14		27		26		ar
15		39		26		1
16		13		12		1
17		3		4		ar
18		26		6		ar
19		12		25		ar
20		12		11		ar
21		25		8		ar
22		4		28		1
23		4		5		ar
24		19		24		ar
25		19		20		ar
26		6		5		ar
27		6		7		1
28		24		23		ar
29		32		11		1
30		11		10		ar
31		5		29		1
32		8		7		1
33		8		9		ar
34		7		30		1
35		10		9		ar
36		10		31		1
37		35		20		1
38		20		21		ar
39		23		38		1
40		23		22		ar
41		21		22		ar
42		21		36		1
43		22		37		1

