@<TRIPOS>MOLECULE
FXQ-2009-CMC-219-10S
 43 46 0 0 0
SMALL
MULLIKEN_CHARGES
****
Gaussian 16 #p B3LYP/6-31G* opt
@<TRIPOS>ATOM
1		C		0.8116		4.5877		-0.2148		C.3		1		UNL1		-0.5211
2		C		-0.0013		3.3239		-0.2107		C.ar		1		UNL1		0.0868
3		C		-1.3809		3.2885		-0.0722		C.ar		1		UNL1		0.0144
4		N		-2.1224		2.1675		-0.0605		N.ar		1		UNL1		-0.4870
5		C		-1.4404		1.0298		-0.1939		C.ar		1		UNL1		0.6995
6		N		-2.0884		-0.1891		-0.1929		N.pl3		1		UNL1		-0.7703
7		C		-3.4335		-0.5352		-0.0717		C.ar		1		UNL1		0.3832
8		C		-4.4816		0.3921		0.0792		C.ar		1		UNL1		-0.1600
9		C		-5.7910		-0.0585		0.1894		C.ar		1		UNL1		-0.1536
10		C		-6.0956		-1.4293		0.1537		C.ar		1		UNL1		0.1306
11		C		-7.4490		-1.8792		0.2676		C.1		1		UNL1		0.2265
12		N		-8.5498		-2.2470		0.3597		N.1		1		UNL1		-0.4862
13		C		-5.0467		-2.3540		0.0036		C.ar		1		UNL1		-0.1407
14		C		-3.7394		-1.9115		-0.1069		C.ar		1		UNL1		-0.2062
15		N		-0.1015		0.9166		-0.3405		N.ar		1		UNL1		-0.5634
16		C		0.5795		2.0445		-0.3444		C.ar		1		UNL1		0.5337
17		O		1.9326		2.0091		-0.4882		O.3		1		UNL1		-0.5574
18		C		2.5753		0.7850		-0.6241		C.ar		1		UNL1		0.3617
19		C		2.6595		0.1999		-1.9067		C.ar		1		UNL1		-0.1403
20		C		3.3717		-0.9592		-2.0855		C.ar		1		UNL1		-0.2072
21		C		4.0329		-1.5843		-0.9950		C.ar		1		UNL1		0.1541
22		C		4.7752		-2.7829		-1.1659		C.ar		1		UNL1		-0.1961
23		C		5.4139		-3.3796		-0.1036		C.ar		1		UNL1		-0.1303
24		C		5.3369		-2.7975		1.1833		C.ar		1		UNL1		-0.1331
25		C		4.6274		-1.6350		1.3882		C.ar		1		UNL1		-0.1942
26		C		3.9566		-0.9953		0.3123		C.ar		1		UNL1		0.1229
27		C		3.2044		0.2090		0.4590		C.ar		1		UNL1		-0.1908
28		CL		3.0696		0.9805		2.0264		Cl		1		UNL1		0.0118
29		H		1.5515		4.5889		0.5939		H		1		UNL1		0.1797
30		H		0.1647		5.4615		-0.0890		H		1		UNL1		0.1574
31		H		1.3668		4.7060		-1.1529		H		1		UNL1		0.1712
32		H		-1.9350		4.2198		0.0387		H		1		UNL1		0.1487
33		H		-1.4387		-0.9586		-0.2927		H		1		UNL1		0.3482
34		H		-4.2541		1.4479		0.1082		H		1		UNL1		0.1898
35		H		-6.5945		0.6622		0.3056		H		1		UNL1		0.1573
36		H		-5.2652		-3.4166		-0.0253		H		1		UNL1		0.1567
37		H		-2.9365		-2.6361		-0.2222		H		1		UNL1		0.1361
38		H		2.1552		0.6921		-2.7316		H		1		UNL1		0.1490
39		H		3.4401		-1.4121		-3.0708		H		1		UNL1		0.1436
40		H		4.8283		-3.2211		-2.1595		H		1		UNL1		0.1374
41		H		5.9779		-4.2965		-0.2494		H		1		UNL1		0.1384
42		H		5.8430		-3.2723		2.0192		H		1		UNL1		0.1398
43		H		4.5738		-1.1961		2.3778		H		1		UNL1		0.1594
@<TRIPOS>BOND
1		39		20		1
2		38		19		1
3		40		22		1
4		20		19		ar
5		20		21		ar
6		19		18		ar
7		22		21		ar
8		22		23		ar
9		31		1		1
10		21		26		ar
11		18		17		1
12		18		27		ar
13		17		16		1
14		16		15		ar
15		16		2		ar
16		15		5		ar
17		33		6		1
18		41		23		1
19		37		14		1
20		1		2		1
21		1		30		1
22		1		29		1
23		2		3		ar
24		5		6		1
25		5		4		ar
26		6		7		1
27		14		7		ar
28		14		13		ar
29		23		24		ar
30		3		4		ar
31		3		32		1
32		7		8		ar
33		36		13		1
34		13		10		ar
35		8		34		1
36		8		9		ar
37		10		9		ar
38		10		11		1
39		9		35		1
40		11		12		3
41		26		27		ar
42		26		25		ar
43		27		28		1
44		24		25		ar
45		24		42		1
46		25		43		1

