@<TRIPOS>MOLECULE
FXQ-2010-BMC-2370-12E
 37 39 0 0 0
SMALL
MULLIKEN_CHARGES
****
Gaussian 16 #p B3LYP/6-31G* opt
@<TRIPOS>ATOM
1		N		-8.3637		0.8296		0.0597		N.1		1		UNL1		-0.4858
2		C		-7.2081		0.6951		0.0153		C.1		1		UNL1		0.2268
3		C		-5.7878		0.5318		-0.0399		C.ar		1		UNL1		0.1308
4		C		-5.2096		-0.7451		0.0505		C.ar		1		UNL1		-0.1534
5		C		-3.8322		-0.9180		-0.0023		C.ar		1		UNL1		-0.1601
6		C		-2.9919		0.2017		-0.1492		C.ar		1		UNL1		0.3836
7		N		-1.6006		0.1393		-0.2153		N.pl3		1		UNL1		-0.7690
8		C		-0.7114		-0.9142		-0.1561		C.ar		1		UNL1		0.6991
9		N		-1.1539		-2.1686		-0.0071		N.ar		1		UNL1		-0.4777
10		C		-0.2001		-3.1099		0.0424		C.ar		1		UNL1		0.0674
11		C		1.1546		-2.8343		-0.0503		C.ar		1		UNL1		-0.1841
12		C		1.5023		-1.4813		-0.2100		C.ar		1		UNL1		0.3349
13		C		2.9158		-1.0346		-0.3368		C.2		1		UNL1		0.1548
14		N		3.7900		-1.9738		-0.4490		N.2		1		UNL1		-0.2174
15		O		5.0866		-1.4955		-0.5631		O.2		1		UNL1		-0.4781
16		C		3.2374		0.4230		-0.3796		C.ar		1		UNL1		0.1388
17		C		3.5701		1.0228		-1.6014		C.ar		1		UNL1		-0.1290
18		C		3.8721		2.3804		-1.6778		C.ar		1		UNL1		-0.1363
19		C		3.8528		3.1613		-0.5215		C.ar		1		UNL1		-0.1177
20		C		3.5346		2.5843		0.7072		C.ar		1		UNL1		-0.1423
21		C		3.2315		1.2249		0.7679		C.ar		1		UNL1		-0.0904
22		CL		2.8530		0.5198		2.3344		Cl		1		UNL1		-0.0048
23		N		0.5752		-0.5238		-0.2647		N.ar		1		UNL1		-0.5710
24		C		-3.5727		1.4837		-0.2393		C.ar		1		UNL1		-0.2054
25		C		-4.9464		1.6493		-0.1859		C.ar		1		UNL1		-0.1406
26		H		-5.8516		-1.6130		0.1639		H		1		UNL1		0.1575
27		H		-3.3949		-1.9033		0.0686		H		1		UNL1		0.1892
28		H		-1.1192		1.0236		-0.3199		H		1		UNL1		0.3489
29		H		-0.5523		-4.1323		0.1659		H		1		UNL1		0.1553
30		H		1.9086		-3.6083		-0.0023		H		1		UNL1		0.1658
31		H		5.6067		-2.3134		-0.6250		H		1		UNL1		0.4270
32		H		3.5871		0.4086		-2.4967		H		1		UNL1		0.1467
33		H		4.1236		2.8255		-2.6359		H		1		UNL1		0.1412
34		H		4.0886		4.2207		-0.5698		H		1		UNL1		0.1433
35		H		3.5225		3.1766		1.6159		H		1		UNL1		0.1582
36		H		-2.9321		2.3552		-0.3522		H		1		UNL1		0.1368
37		H		-5.3774		2.6427		-0.2567		H		1		UNL1		0.1570
@<TRIPOS>BOND
1		33		18		1
2		32		17		1
3		18		17		ar
4		18		19		ar
5		17		16		ar
6		31		15		1
7		34		19		1
8		15		14		1
9		19		20		ar
10		14		13		2
11		16		13		1
12		16		21		ar
13		36		24		1
14		13		12		1
15		28		7		1
16		23		12		ar
17		23		8		ar
18		37		25		1
19		24		25		ar
20		24		6		ar
21		7		8		1
22		7		6		1
23		12		11		ar
24		25		3		ar
25		8		9		ar
26		6		5		ar
27		11		30		1
28		11		10		ar
29		3		2		1
30		3		4		ar
31		9		10		ar
32		5		4		ar
33		5		27		1
34		2		1		3
35		10		29		1
36		4		26		1
37		20		21		ar
38		20		35		1
39		21		22		1

