@<TRIPOS>MOLECULE
FXQ-2009-CMC-219-10AA
 43 46 0 0 0
SMALL
MULLIKEN_CHARGES
****
Gaussian 16 #p B3LYP/6-31G* opt
@<TRIPOS>ATOM
1		C		-1.8476		3.0459		0.2442		C.3		1		UNL1		-0.5143
2		C		-1.8873		1.5474		0.1095		C.ar		1		UNL1		0.3421
3		C		-0.7220		0.7903		0.0275		C.ar		1		UNL1		-0.2611
4		C		-0.8953		-0.5978		-0.0934		C.ar		1		UNL1		0.5408
5		O		0.1362		-1.4828		-0.1665		O.3		1		UNL1		-0.5363
6		C		1.4405		-1.0223		-0.3162		C.ar		1		UNL1		0.3239
7		C		1.8652		-0.5399		-1.5779		C.ar		1		UNL1		-0.1526
8		C		3.1762		-0.1632		-1.7521		C.ar		1		UNL1		-0.2000
9		C		4.1129		-0.2573		-0.6865		C.ar		1		UNL1		0.1444
10		C		5.4712		0.1248		-0.8468		C.ar		1		UNL1		-0.2198
11		C		6.3423		0.0128		0.2097		C.ar		1		UNL1		0.0792
12		BR		8.1703		0.5284		-0.0056		Br		1		UNL1		-0.1220
13		C		5.9222		-0.4788		1.4677		C.ar		1		UNL1		-0.1512
14		C		4.6104		-0.8550		1.6423		C.ar		1		UNL1		-0.1895
15		C		3.6706		-0.7571		0.5815		C.ar		1		UNL1		0.1355
16		C		2.3112		-1.1347		0.7402		C.ar		1		UNL1		-0.2349
17		N		-2.0846		-1.1747		-0.1246		N.ar		1		UNL1		-0.5473
18		C		-3.1428		-0.3447		-0.0353		C.ar		1		UNL1		0.6983
19		N		-4.3503		-1.0119		-0.0721		N.pl3		1		UNL1		-0.7707
20		C		-5.6724		-0.5720		-0.0130		C.ar		1		UNL1		0.3827
21		C		-6.0579		0.7764		0.1065		C.ar		1		UNL1		-0.1596
22		C		-7.4062		1.1073		0.1563		C.ar		1		UNL1		-0.1538
23		C		-8.4021		0.1189		0.0898		C.ar		1		UNL1		0.1309
24		C		-9.7869		0.4747		0.1422		C.1		1		UNL1		0.2267
25		N		-10.9140		0.7635		0.1848		N.1		1		UNL1		-0.4858
26		C		-8.0148		-1.2277		-0.0294		C.ar		1		UNL1		-0.1407
27		C		-6.6725		-1.5640		-0.0796		C.ar		1		UNL1		-0.2058
28		N		-3.1105		0.9866		0.0763		N.ar		1		UNL1		-0.5400
29		H		-2.3806		3.5126		-0.5918		H		1		UNL1		0.1804
30		H		-0.8227		3.4257		0.2657		H		1		UNL1		0.1594
31		H		-2.3590		3.3545		1.1627		H		1		UNL1		0.1811
32		H		0.2573		1.2479		0.0642		H		1		UNL1		0.1570
33		H		1.1496		-0.4857		-2.3921		H		1		UNL1		0.1541
34		H		3.5134		0.2053		-2.7173		H		1		UNL1		0.1476
35		H		5.8126		0.5029		-1.8050		H		1		UNL1		0.1572
36		H		6.6369		-0.5546		2.2795		H		1		UNL1		0.1594
37		H		4.2803		-1.2346		2.6058		H		1		UNL1		0.1471
38		H		1.9566		-1.5220		1.6906		H		1		UNL1		0.1517
39		H		-4.2181		-2.0117		-0.1583		H		1		UNL1		0.3490
40		H		-5.2966		1.5410		0.1581		H		1		UNL1		0.1855
41		H		-7.6963		2.1493		0.2485		H		1		UNL1		0.1564
42		H		-8.7719		-2.0035		-0.0819		H		1		UNL1		0.1575
43		H		-6.3854		-2.6089		-0.1719		H		1		UNL1		0.1375
@<TRIPOS>BOND
1		34		8		1
2		33		7		1
3		35		10		1
4		8		7		ar
5		8		9		ar
6		7		6		ar
7		10		9		ar
8		10		11		ar
9		9		15		ar
10		29		1		1
11		6		5		1
12		6		16		ar
13		43		27		1
14		5		4		1
15		39		19		1
16		17		4		ar
17		17		18		ar
18		4		3		ar
19		42		26		1
20		27		26		ar
21		27		20		ar
22		19		18		1
23		19		20		1
24		18		28		ar
25		26		23		ar
26		20		21		ar
27		12		11		1
28		3		32		1
29		3		2		ar
30		28		2		ar
31		23		24		1
32		23		22		ar
33		21		22		ar
34		21		40		1
35		2		1		1
36		24		25		3
37		22		41		1
38		11		13		ar
39		1		30		1
40		1		31		1
41		15		16		ar
42		15		14		ar
43		16		38		1
44		13		14		ar
45		13		36		1
46		14		37		1

