@<TRIPOS>MOLECULE
FXQ-2009-CMC-219-10J
 40 43 0 0 0
SMALL
MULLIKEN_CHARGES
****
Gaussian 16 #p B3LYP/6-31G* opt
@<TRIPOS>ATOM
1		N		-10.3375		-0.2903		0.7343		N.1		1		UNL1		-0.4848
2		C		-9.2034		-0.2086		0.4841		C.1		1		UNL1		0.2274
3		C		-7.8100		-0.1073		0.1754		C.ar		1		UNL1		0.1313
4		C		-6.8411		-0.5795		1.0761		C.ar		1		UNL1		-0.1534
5		C		-5.4849		-0.4874		0.7893		C.ar		1		UNL1		-0.1594
6		C		-5.0648		0.0883		-0.4241		C.ar		1		UNL1		0.3822
7		N		-3.7311		0.2304		-0.8102		N.pl3		1		UNL1		-0.7665
8		C		-2.5441		-0.1121		-0.1990		C.ar		1		UNL1		0.6988
9		N		-2.5474		-0.7035		1.0032		N.ar		1		UNL1		-0.4835
10		C		-1.3355		-0.9888		1.4971		C.ar		1		UNL1		0.0676
11		C		-0.1444		-0.7130		0.8421		C.ar		1		UNL1		-0.2173
12		C		-0.2844		-0.0923		-0.4106		C.ar		1		UNL1		0.5380
13		O		0.7642		0.2719		-1.1996		O.3		1		UNL1		-0.5350
14		C		2.0656		-0.0537		-0.8274		C.ar		1		UNL1		0.2527
15		C		2.5538		-1.3134		-1.0749		C.ar		1		UNL1		-0.1572
16		C		3.8964		-1.6191		-0.7599		C.ar		1		UNL1		-0.1776
17		C		4.7118		-0.6558		-0.2143		C.ar		1		UNL1		0.0353
18		BR		6.5195		-1.1388		0.1916		Br		1		UNL1		-0.1168
19		C		4.2489		0.6672		0.0456		C.ar		1		UNL1		0.0912
20		C		5.0557		1.6953		0.6008		C.ar		1		UNL1		-0.1908
21		C		4.5441		2.9538		0.8220		C.ar		1		UNL1		-0.1281
22		C		3.2005		3.2523		0.4967		C.ar		1		UNL1		-0.1299
23		C		2.3863		2.2827		-0.0418		C.ar		1		UNL1		-0.1902
24		C		2.8815		0.9729		-0.2761		C.ar		1		UNL1		0.1132
25		N		-1.4608		0.2105		-0.9332		N.ar		1		UNL1		-0.5450
26		C		-6.0373		0.5622		-1.3283		C.ar		1		UNL1		-0.2057
27		C		-7.3878		0.4675		-1.0365		C.ar		1		UNL1		-0.1405
28		H		-7.1584		-1.0246		2.0139		H		1		UNL1		0.1581
29		H		-4.7452		-0.8529		1.4867		H		1		UNL1		0.1896
30		H		-3.5735		0.6651		-1.7106		H		1		UNL1		0.3496
31		H		-1.3236		-1.4652		2.4756		H		1		UNL1		0.1585
32		H		0.8176		-0.9562		1.2718		H		1		UNL1		0.1647
33		H		1.9090		-2.0664		-1.5161		H		1		UNL1		0.1573
34		H		4.2823		-2.6136		-0.9525		H		1		UNL1		0.1637
35		H		6.0874		1.4704		0.8464		H		1		UNL1		0.1616
36		H		5.1793		3.7258		1.2468		H		1		UNL1		0.1427
37		H		2.8121		4.2518		0.6702		H		1		UNL1		0.1427
38		H		1.3587		2.5056		-0.3069		H		1		UNL1		0.1592
39		H		-5.7227		1.0086		-2.2688		H		1		UNL1		0.1379
40		H		-8.1238		0.8370		-1.7432		H		1		UNL1		0.1582
@<TRIPOS>BOND
1		39		26		1
2		40		27		1
3		30		7		1
4		33		15		1
5		26		27		ar
6		26		6		ar
7		13		14		1
8		13		12		1
9		15		14		ar
10		15		16		ar
11		27		3		ar
12		34		16		1
13		25		12		ar
14		25		8		ar
15		14		24		ar
16		7		6		1
17		7		8		1
18		16		17		ar
19		6		5		ar
20		12		11		ar
21		38		23		1
22		24		23		ar
23		24		19		ar
24		17		19		ar
25		17		18		1
26		8		9		ar
27		23		22		ar
28		19		20		ar
29		3		2		1
30		3		4		ar
31		2		1		3
32		22		37		1
33		22		21		ar
34		20		21		ar
35		20		35		1
36		5		4		ar
37		5		29		1
38		21		36		1
39		11		32		1
40		11		10		ar
41		9		10		ar
42		4		28		1
43		10		31		1

