@<TRIPOS>MOLECULE
FXQ-2009-CMC-219-10O
 43 46 0 0 0
SMALL
MULLIKEN_CHARGES
****
Gaussian 16 #p B3LYP/6-31G* opt
@<TRIPOS>ATOM
1		C		-0.6361		4.9888		-0.2236		C.3		1		UNL1		-0.5436
2		C		0.0240		3.6395		-0.1494		C.ar		1		UNL1		0.1183
3		C		1.4022		3.4776		-0.2260		C.ar		1		UNL1		0.0257
4		N		2.0406		2.3000		-0.1653		N.ar		1		UNL1		-0.4820
5		C		1.2507		1.2333		-0.0207		C.ar		1		UNL1		0.6847
6		N		1.7856		-0.0380		0.0534		N.pl3		1		UNL1		-0.7619
7		C		3.0963		-0.5088		0.0061		C.ar		1		UNL1		0.3834
8		C		3.2727		-1.9047		0.1056		C.ar		1		UNL1		-0.2062
9		C		4.5371		-2.4677		0.0703		C.ar		1		UNL1		-0.1408
10		C		5.6722		-1.6486		-0.0664		C.ar		1		UNL1		0.1303
11		C		6.9818		-2.2234		-0.1032		C.1		1		UNL1		0.2262
12		N		8.0469		-2.6928		-0.1327		N.1		1		UNL1		-0.4866
13		C		5.4969		-0.2584		-0.1658		C.ar		1		UNL1		-0.1536
14		C		4.2311		0.3129		-0.1311		C.ar		1		UNL1		-0.1606
15		N		-0.0950		1.2451		0.0669		N.ar		1		UNL1		-0.5107
16		C		-0.6901		2.4264		0.0025		C.ar		1		UNL1		0.0672
17		S		-2.4733		2.5141		0.1130		S.3		1		UNL1		0.1539
18		C		-2.9563		0.8018		0.3254		C.ar		1		UNL1		-0.0848
19		C		-2.7382		0.1410		1.5647		C.ar		1		UNL1		-0.1295
20		C		-3.1850		-1.1457		1.7449		C.ar		1		UNL1		-0.1899
21		C		-3.8793		-1.8351		0.7126		C.ar		1		UNL1		0.1364
22		C		-4.3585		-3.1620		0.8729		C.ar		1		UNL1		-0.1921
23		C		-5.0279		-3.7974		-0.1494		C.ar		1		UNL1		-0.1319
24		C		-5.2503		-3.1341		-1.3809		C.ar		1		UNL1		-0.1356
25		C		-4.7998		-1.8465		-1.5672		C.ar		1		UNL1		-0.1867
26		C		-4.1058		-1.1640		-0.5324		C.ar		1		UNL1		0.1400
27		C		-3.6250		0.1630		-0.6970		C.ar		1		UNL1		-0.2114
28		H		-1.3272		5.0567		-1.0733		H		1		UNL1		0.1800
29		H		-1.2177		5.2065		0.6811		H		1		UNL1		0.1806
30		H		0.1136		5.7781		-0.3382		H		1		UNL1		0.1625
31		H		2.0402		4.3532		-0.3438		H		1		UNL1		0.1475
32		H		1.0628		-0.7391		0.1554		H		1		UNL1		0.3486
33		H		2.4023		-2.5483		0.2111		H		1		UNL1		0.1362
34		H		4.6554		-3.5437		0.1479		H		1		UNL1		0.1563
35		H		6.3674		0.3813		-0.2718		H		1		UNL1		0.1568
36		H		4.1038		1.3830		-0.2087		H		1		UNL1		0.1890
37		H		-2.2174		0.6624		2.3608		H		1		UNL1		0.1495
38		H		-3.0177		-1.6524		2.6924		H		1		UNL1		0.1376
39		H		-4.1882		-3.6698		1.8193		H		1		UNL1		0.1350
40		H		-5.3894		-4.8131		-0.0142		H		1		UNL1		0.1366
41		H		-5.7797		-3.6468		-2.1792		H		1		UNL1		0.1367
42		H		-4.9691		-1.3337		-2.5110		H		1		UNL1		0.1369
43		H		-3.7893		0.6714		-1.6429		H		1		UNL1		0.1520
@<TRIPOS>BOND
1		42		25		1
2		41		24		1
3		43		27		1
4		25		24		ar
5		25		26		ar
6		24		23		ar
7		28		1		1
8		27		26		ar
9		27		18		ar
10		26		21		ar
11		31		3		1
12		30		1		1
13		35		13		1
14		3		4		ar
15		3		2		ar
16		1		2		1
17		1		29		1
18		36		14		1
19		13		14		ar
20		13		10		ar
21		4		5		ar
22		23		40		1
23		23		22		ar
24		2		16		ar
25		12		11		3
26		14		7		ar
27		11		10		1
28		10		9		ar
29		5		6		1
30		5		15		ar
31		16		15		ar
32		16		17		1
33		7		6		1
34		7		8		ar
35		6		32		1
36		9		8		ar
37		9		34		1
38		8		33		1
39		17		18		1
40		18		19		ar
41		21		22		ar
42		21		20		ar
43		22		39		1
44		19		20		ar
45		19		37		1
46		20		38		1

