@<TRIPOS>MOLECULE
FXQ-2009-CMC-219-10M
 40 43 0 0 0
SMALL
MULLIKEN_CHARGES
****
Gaussian 16 #p B3LYP/6-31G* opt
@<TRIPOS>ATOM
1		N		9.4380		-0.6629		-0.3042		N.1		1		UNL1		-0.4859
2		C		8.3022		-0.4176		-0.2316		C.1		1		UNL1		0.2268
3		C		6.9067		-0.1148		-0.1422		C.ar		1		UNL1		0.1308
4		C		5.9446		-1.1316		-0.2594		C.ar		1		UNL1		-0.1535
5		C		4.5864		-0.8521		-0.1745		C.ar		1		UNL1		-0.1595
6		C		4.1568		0.4720		0.0325		C.ar		1		UNL1		0.3827
7		N		2.8210		0.8614		0.1325		N.pl3		1		UNL1		-0.7660
8		C		1.6377		0.1556		0.0671		C.ar		1		UNL1		0.6980
9		N		1.6512		-1.1702		-0.1252		N.ar		1		UNL1		-0.4848
10		C		0.4426		-1.7461		-0.1754		C.ar		1		UNL1		0.0676
11		C		-0.7529		-1.0568		-0.0397		C.ar		1		UNL1		-0.2216
12		C		-0.6240		0.3288		0.1622		C.ar		1		UNL1		0.5357
13		O		-1.6776		1.1739		0.3031		O.3		1		UNL1		-0.5311
14		C		-2.9713		0.6607		0.3928		C.ar		1		UNL1		0.3163
15		C		-3.4143		0.1249		1.6255		C.ar		1		UNL1		-0.1529
16		C		-4.7141		-0.3097		1.7420		C.ar		1		UNL1		-0.2038
17		C		-5.6191		-0.2242		0.6490		C.ar		1		UNL1		0.1456
18		C		-6.9663		-0.6642		0.7447		C.ar		1		UNL1		-0.1924
19		C		-7.8186		-0.5637		-0.3317		C.ar		1		UNL1		-0.1334
20		C		-7.3613		-0.0161		-1.5555		C.ar		1		UNL1		-0.1348
21		C		-6.0618		0.4207		-1.6815		C.ar		1		UNL1		-0.1883
22		C		-5.1568		0.3299		-0.5901		C.ar		1		UNL1		0.1276
23		C		-3.8090		0.7683		-0.6898		C.ar		1		UNL1		-0.2325
24		N		0.5504		0.9367		0.2157		N.ar		1		UNL1		-0.5435
25		C		5.1227		1.4926		0.1502		C.ar		1		UNL1		-0.2058
26		C		6.4751		1.2074		0.0647		C.ar		1		UNL1		-0.1406
27		H		6.2690		-2.1551		-0.4192		H		1		UNL1		0.1572
28		H		3.8519		-1.6391		-0.2655		H		1		UNL1		0.1893
29		H		2.6558		1.8490		0.2808		H		1		UNL1		0.3492
30		H		0.4381		-2.8227		-0.3359		H		1		UNL1		0.1562
31		H		-1.7121		-1.5531		-0.0928		H		1		UNL1		0.1642
32		H		-2.7233		0.0765		2.4612		H		1		UNL1		0.1501
33		H		-5.0670		-0.7205		2.6846		H		1		UNL1		0.1428
34		H		-7.3140		-1.0828		1.6861		H		1		UNL1		0.1357
35		H		-8.8469		-0.9037		-0.2462		H		1		UNL1		0.1367
36		H		-8.0435		0.0588		-2.3978		H		1		UNL1		0.1374
37		H		-5.7102		0.8419		-2.6201		H		1		UNL1		0.1372
38		H		-3.4395		1.1977		-1.6163		H		1		UNL1		0.1485
39		H		4.8010		2.5191		0.3104		H		1		UNL1		0.1375
40		H		7.2056		2.0046		0.1573		H		1		UNL1		0.1573
@<TRIPOS>BOND
1		37		21		1
2		36		20		1
3		21		20		ar
4		21		22		ar
5		38		23		1
6		20		19		ar
7		23		22		ar
8		23		14		ar
9		22		17		ar
10		27		4		1
11		30		10		1
12		19		35		1
13		19		18		ar
14		1		2		3
15		28		5		1
16		4		5		ar
17		4		3		ar
18		2		3		1
19		10		9		ar
20		10		11		ar
21		5		6		ar
22		3		26		ar
23		9		8		ar
24		31		11		1
25		11		12		ar
26		6		7		1
27		6		25		ar
28		26		25		ar
29		26		40		1
30		8		7		1
31		8		24		ar
32		7		29		1
33		25		39		1
34		12		24		ar
35		12		13		1
36		13		14		1
37		14		15		ar
38		17		18		ar
39		17		16		ar
40		18		34		1
41		15		16		ar
42		15		32		1
43		16		33		1

