@<TRIPOS>MOLECULE
FXQ-2009-CMC-219-10L
 43 46 0 0 0
SMALL
MULLIKEN_CHARGES
****
Gaussian 16 #p B3LYP/6-31G* opt
@<TRIPOS>ATOM
1		C		1.6952		-2.7751		-0.2775		C.3		1		UNL1		-0.5381
2		C		0.5102		-1.8726		-0.0647		C.ar		1		UNL1		0.1205
3		C		-0.7583		-2.1786		-0.5510		C.ar		1		UNL1		0.0126
4		N		-1.8553		-1.4377		-0.3491		N.ar		1		UNL1		-0.4775
5		C		-1.6738		-0.3369		0.3868		C.ar		1		UNL1		0.6949
6		N		-2.7312		0.5002		0.6778		N.pl3		1		UNL1		-0.7686
7		C		-4.0848		0.4544		0.3449		C.ar		1		UNL1		0.3829
8		C		-4.6782		-0.5583		-0.4318		C.ar		1		UNL1		-0.1606
9		C		-6.0390		-0.5089		-0.7070		C.ar		1		UNL1		-0.1533
10		C		-6.8426		0.5369		-0.2239		C.ar		1		UNL1		0.1310
11		C		-8.2428		0.5751		-0.5158		C.1		1		UNL1		0.2270
12		N		-9.3821		0.6073		-0.7528		N.1		1		UNL1		-0.4853
13		C		-6.2476		1.5475		0.5523		C.ar		1		UNL1		-0.1405
14		C		-4.8918		1.5042		0.8301		C.ar		1		UNL1		-0.2058
15		N		-0.5035		0.0835		0.9099		N.ar		1		UNL1		-0.5284
16		C		0.5536		-0.6732		0.6781		C.ar		1		UNL1		0.4616
17		O		1.7031		-0.2600		1.2994		O.3		1		UNL1		-0.5497
18		C		2.8257		0.0693		0.5551		C.ar		1		UNL1		0.3515
19		C		2.7175		0.6046		-0.7522		C.ar		1		UNL1		-0.1728
20		C		3.8594		0.9637		-1.4311		C.ar		1		UNL1		-0.2044
21		C		5.1448		0.8239		-0.8441		C.ar		1		UNL1		0.1425
22		C		6.3358		1.1921		-1.5250		C.ar		1		UNL1		-0.1910
23		C		7.5651		1.0476		-0.9230		C.ar		1		UNL1		-0.1363
24		C		7.6569		0.5267		0.3917		C.ar		1		UNL1		-0.1349
25		C		6.5221		0.1609		1.0794		C.ar		1		UNL1		-0.1904
26		C		5.2370		0.2970		0.4865		C.ar		1		UNL1		0.1339
27		C		4.0501		-0.0794		1.1653		C.ar		1		UNL1		-0.2530
28		H		2.2103		-2.9826		0.6668		H		1		UNL1		0.1773
29		H		1.3722		-3.7293		-0.7056		H		1		UNL1		0.1616
30		H		2.4344		-2.3345		-0.9562		H		1		UNL1		0.1808
31		H		-0.9050		-3.0887		-1.1319		H		1		UNL1		0.1512
32		H		-2.4386		1.2861		1.2446		H		1		UNL1		0.3497
33		H		-4.0668		-1.3664		-0.8065		H		1		UNL1		0.1888
34		H		-6.4902		-1.2932		-1.3066		H		1		UNL1		0.1577
35		H		-6.8547		2.3623		0.9333		H		1		UNL1		0.1579
36		H		-4.4428		2.2913		1.4315		H		1		UNL1		0.1378
37		H		1.7388		0.7392		-1.2013		H		1		UNL1		0.1509
38		H		3.7825		1.3750		-2.4346		H		1		UNL1		0.1404
39		H		6.2589		1.5924		-2.5332		H		1		UNL1		0.1328
40		H		8.4696		1.3329		-1.4529		H		1		UNL1		0.1334
41		H		8.6323		0.4175		0.8579		H		1		UNL1		0.1343
42		H		6.5935		-0.2379		2.0884		H		1		UNL1		0.1336
43		H		4.0984		-0.4837		2.1720		H		1		UNL1		0.1441
@<TRIPOS>BOND
1		39		22		1
2		38		20		1
3		22		23		ar
4		22		21		ar
5		40		23		1
6		20		21		ar
7		20		19		ar
8		34		9		1
9		37		19		1
10		31		3		1
11		30		1		1
12		23		24		ar
13		21		26		ar
14		33		8		1
15		12		11		3
16		19		18		ar
17		9		8		ar
18		9		10		ar
19		29		1		1
20		3		4		ar
21		3		2		ar
22		11		10		1
23		8		7		ar
24		4		5		ar
25		1		2		1
26		1		28		1
27		10		13		ar
28		2		16		ar
29		7		6		1
30		7		14		ar
31		5		6		1
32		5		15		ar
33		24		41		1
34		24		25		ar
35		26		25		ar
36		26		27		ar
37		13		14		ar
38		13		35		1
39		18		27		ar
40		18		17		1
41		6		32		1
42		16		15		ar
43		16		17		1
44		14		36		1
45		25		42		1
46		27		43		1

