@<TRIPOS>MOLECULE
FXQ-2009-CMC-219-10I
 43 46 0 0 0
SMALL
MULLIKEN_CHARGES
****
Gaussian 16 #p B3LYP/6-31G* opt
@<TRIPOS>ATOM
1		C		0.0981		4.8760		0.6411		C.3		1		UNL1		-0.5197
2		C		0.7733		3.5400		0.5064		C.ar		1		UNL1		0.0844
3		C		2.1475		3.3721		0.4194		C.ar		1		UNL1		0.0140
4		N		2.7698		2.1870		0.3011		N.ar		1		UNL1		-0.4863
5		C		1.9682		1.1216		0.2698		C.ar		1		UNL1		0.6985
6		N		2.4869		-0.1513		0.1484		N.pl3		1		UNL1		-0.7701
7		C		3.7943		-0.6244		0.0377		C.ar		1		UNL1		0.3826
8		C		4.9380		0.1959		0.0361		C.ar		1		UNL1		-0.1601
9		C		6.1981		-0.3777		-0.0790		C.ar		1		UNL1		-0.1536
10		C		6.3579		-1.7684		-0.1945		C.ar		1		UNL1		0.1308
11		C		7.6620		-2.3452		-0.3123		C.1		1		UNL1		0.2269
12		N		8.7226		-2.8157		-0.4082		N.1		1		UNL1		-0.4856
13		C		5.2136		-2.5859		-0.1927		C.ar		1		UNL1		-0.1407
14		C		3.9547		-2.0205		-0.0784		C.ar		1		UNL1		-0.2063
15		N		0.6189		1.1376		0.3472		N.ar		1		UNL1		-0.5591
16		C		0.0566		2.3239		0.4614		C.ar		1		UNL1		0.5233
17		O		-1.2990		2.4205		0.5379		O.3		1		UNL1		-0.5696
18		C		-2.0750		1.2583		0.5558		C.ar		1		UNL1		0.2996
19		C		-2.3246		0.6337		1.7509		C.ar		1		UNL1		-0.1537
20		C		-3.1741		-0.4936		1.7882		C.ar		1		UNL1		-0.1798
21		C		-3.7508		-0.9584		0.6303		C.ar		1		UNL1		0.0353
22		BR		-4.8899		-2.4940		0.7513		Br		1		UNL1		-0.1221
23		C		-3.5260		-0.3316		-0.6298		C.ar		1		UNL1		0.0885
24		C		-4.1058		-0.7720		-1.8490		C.ar		1		UNL1		-0.1912
25		C		-3.8495		-0.1170		-3.0319		C.ar		1		UNL1		-0.1293
26		C		-3.0021		1.0150		-3.0578		C.ar		1		UNL1		-0.1307
27		C		-2.4215		1.4712		-1.8972		C.ar		1		UNL1		-0.1876
28		C		-2.6600		0.8156		-0.6611		C.ar		1		UNL1		0.1216
29		H		0.8396		5.6805		0.6683		H		1		UNL1		0.1589
30		H		-0.5842		5.0698		-0.1951		H		1		UNL1		0.1716
31		H		-0.5015		4.9324		1.5572		H		1		UNL1		0.1735
32		H		2.7992		4.2446		0.4468		H		1		UNL1		0.1489
33		H		1.7578		-0.8532		0.1350		H		1		UNL1		0.3491
34		H		4.8222		1.2664		0.1245		H		1		UNL1		0.1895
35		H		7.0760		0.2606		-0.0796		H		1		UNL1		0.1574
36		H		5.3201		-3.6623		-0.2812		H		1		UNL1		0.1576
37		H		3.0771		-2.6629		-0.0784		H		1		UNL1		0.1375
38		H		-1.8686		1.0067		2.6618		H		1		UNL1		0.1498
39		H		-3.3704		-0.9902		2.7316		H		1		UNL1		0.1608
40		H		-4.7588		-1.6372		-1.8304		H		1		UNL1		0.1601
41		H		-4.3041		-0.4708		-3.9530		H		1		UNL1		0.1406
42		H		-2.8115		1.5257		-3.9975		H		1		UNL1		0.1395
43		H		-1.7781		2.3440		-1.9084		H		1		UNL1		0.1448
@<TRIPOS>BOND
1		42		26		1
2		41		25		1
3		26		25		ar
4		26		27		ar
5		25		24		ar
6		43		27		1
7		27		28		ar
8		24		40		1
9		24		23		ar
10		28		23		ar
11		28		18		ar
12		23		21		ar
13		12		11		3
14		11		10		1
15		36		13		1
16		30		1		1
17		10		13		ar
18		10		9		ar
19		13		14		ar
20		35		9		1
21		9		8		ar
22		14		37		1
23		14		7		ar
24		8		7		ar
25		8		34		1
26		7		6		1
27		33		6		1
28		6		5		1
29		5		4		ar
30		5		15		ar
31		4		3		ar
32		15		16		ar
33		3		32		1
34		3		2		ar
35		16		2		ar
36		16		17		1
37		2		1		1
38		17		18		1
39		18		19		ar
40		21		22		1
41		21		20		ar
42		1		29		1
43		1		31		1
44		19		20		ar
45		19		38		1
46		20		39		1

