@<TRIPOS>MOLECULE
FXQ-2009-CMC-219-10AD
 37 39 0 0 0
SMALL
MULLIKEN_CHARGES
****
Gaussian 16 #p B3LYP/6-31G* opt
@<TRIPOS>ATOM
1		C		0.1742		4.3220		0.0686		C.3		1		UNL1		-0.5140
2		C		-0.3873		2.9266		0.0362		C.ar		1		UNL1		0.3439
3		C		-1.7529		2.6838		0.0249		C.ar		1		UNL1		-0.2557
4		C		-2.1412		1.3338		-0.0053		C.ar		1		UNL1		0.5773
5		O		-3.4726		1.0840		-0.0257		O.3		1		UNL1		-0.5658
6		C		-3.9395		-0.2353		0.0006		C.ar		1		UNL1		0.3529
7		C		-3.9359		-0.9567		1.1922		C.ar		1		UNL1		-0.1388
8		C		-4.4973		-2.2334		1.2103		C.ar		1		UNL1		-0.1448
9		C		-5.0586		-2.7748		0.0509		C.ar		1		UNL1		-0.1217
10		C		-5.0588		-2.0343		-1.1324		C.ar		1		UNL1		-0.1427
11		C		-4.4966		-0.7567		-1.1628		C.ar		1		UNL1		-0.1530
12		N		-1.2806		0.3328		-0.0224		N.ar		1		UNL1		-0.5648
13		C		0.0249		0.6857		-0.0092		C.ar		1		UNL1		0.6977
14		N		0.8698		-0.4061		-0.0299		N.pl3		1		UNL1		-0.7722
15		C		2.2594		-0.5197		-0.0291		C.ar		1		UNL1		0.3828
16		C		3.1464		0.5728		0.0017		C.ar		1		UNL1		-0.1596
17		C		4.5174		0.3492		0.0006		C.ar		1		UNL1		-0.1540
18		C		5.0435		-0.9529		-0.0308		C.ar		1		UNL1		0.1307
19		C		6.4580		-1.1682		-0.0313		C.1		1		UNL1		0.2264
20		N		7.6088		-1.3447		-0.0316		N.1		1		UNL1		-0.4861
21		C		4.1556		-2.0431		-0.0616		C.ar		1		UNL1		-0.1408
22		C		2.7879		-1.8269		-0.0607		C.ar		1		UNL1		-0.2060
23		N		0.5178		1.9231		0.0196		N.ar		1		UNL1		-0.5437
24		H		-0.6158		5.0774		0.0830		H		1		UNL1		0.1595
25		H		0.8060		4.4531		0.9543		H		1		UNL1		0.1791
26		H		0.8106		4.4918		-0.8072		H		1		UNL1		0.1794
27		H		-2.4915		3.4752		0.0384		H		1		UNL1		0.1507
28		H		-3.5020		-0.5193		2.0854		H		1		UNL1		0.1428
29		H		-4.4996		-2.8039		2.1350		H		1		UNL1		0.1383
30		H		-5.4979		-3.7680		0.0718		H		1		UNL1		0.1347
31		H		-5.4980		-2.4481		-2.0358		H		1		UNL1		0.1388
32		H		-4.4901		-0.1614		-2.0704		H		1		UNL1		0.1436
33		H		0.3526		-1.2757		-0.0546		H		1		UNL1		0.3485
34		H		2.7470		1.5763		0.0257		H		1		UNL1		0.1865
35		H		5.1957		1.1964		0.0244		H		1		UNL1		0.1564
36		H		4.5460		-3.0554		-0.0863		H		1		UNL1		0.1569
37		H		2.1111		-2.6779		-0.0850		H		1		UNL1		0.1365
@<TRIPOS>BOND
1		32		11		1
2		31		10		1
3		11		10		ar
4		11		6		ar
5		10		9		ar
6		26		1		1
7		36		21		1
8		37		22		1
9		21		22		ar
10		21		18		ar
11		22		15		ar
12		33		14		1
13		20		19		3
14		19		18		1
15		18		17		ar
16		14		15		1
17		14		13		1
18		15		16		ar
19		5		4		1
20		5		6		1
21		12		13		ar
22		12		4		ar
23		13		23		ar
24		4		3		ar
25		6		7		ar
26		17		16		ar
27		17		35		1
28		16		34		1
29		23		2		ar
30		3		2		ar
31		3		27		1
32		2		1		1
33		9		30		1
34		9		8		ar
35		1		24		1
36		1		25		1
37		7		8		ar
38		7		28		1
39		8		29		1

