@<TRIPOS>MOLECULE
FXQ-2009-CMC-219-10AE
 37 39 0 0 0
SMALL
MULLIKEN_CHARGES
****
Gaussian 16 #p B3LYP/6-31G* opt
@<TRIPOS>ATOM
1		C		-2.8453		3.6915		0.0373		C.3		1		UNL1		-0.5194
2		C		-1.7724		2.6395		0.0225		C.ar		1		UNL1		0.0855
3		C		-0.4145		2.9181		0.0307		C.ar		1		UNL1		0.0136
4		N		0.5594		1.9911		0.0178		N.ar		1		UNL1		-0.4880
5		C		0.1405		0.7258		-0.0050		C.ar		1		UNL1		0.6958
6		N		1.0440		-0.3187		-0.0217		N.pl3		1		UNL1		-0.7694
7		C		2.4375		-0.3526		-0.0203		C.ar		1		UNL1		0.3832
8		C		3.0409		-1.6271		-0.0448		C.ar		1		UNL1		-0.2064
9		C		4.4188		-1.7635		-0.0448		C.ar		1		UNL1		-0.1408
10		C		5.2420		-0.6235		-0.0201		C.ar		1		UNL1		0.1304
11		C		6.6664		-0.7567		-0.0198		C.1		1		UNL1		0.2263
12		N		7.8255		-0.8668		-0.0194		N.1		1		UNL1		-0.4865
13		C		4.6412		0.6461		0.0042		C.ar		1		UNL1		-0.1538
14		C		3.2595		0.7899		0.0044		C.ar		1		UNL1		-0.1603
15		N		-1.1451		0.3103		-0.0151		N.ar		1		UNL1		-0.5616
16		C		-2.0639		1.2565		-0.0011		C.ar		1		UNL1		0.5244
17		O		-3.3784		0.9204		-0.0157		O.3		1		UNL1		-0.5628
18		C		-3.7549		-0.4283		0.0002		C.ar		1		UNL1		0.3554
19		C		-3.7841		-1.1258		1.2051		C.ar		1		UNL1		-0.1408
20		C		-4.2534		-2.4395		1.2137		C.ar		1		UNL1		-0.1445
21		C		-4.6903		-3.0405		0.0306		C.ar		1		UNL1		-0.1214
22		C		-4.6586		-2.3234		-1.1667		C.ar		1		UNL1		-0.1432
23		C		-4.1886		-1.0089		-1.1874		C.ar		1		UNL1		-0.1507
24		H		-2.4029		4.6925		0.0582		H		1		UNL1		0.1571
25		H		-3.4978		3.5876		0.9122		H		1		UNL1		0.1723
26		H		-3.4895		3.6209		-0.8471		H		1		UNL1		0.1721
27		H		-0.0771		3.9538		0.0494		H		1		UNL1		0.1472
28		H		0.5770		-1.2163		-0.0410		H		1		UNL1		0.3480
29		H		2.4146		-2.5161		-0.0642		H		1		UNL1		0.1357
30		H		4.8673		-2.7516		-0.0640		H		1		UNL1		0.1564
31		H		5.2690		1.5314		0.0233		H		1		UNL1		0.1569
32		H		2.8035		1.7692		0.0230		H		1		UNL1		0.1897
33		H		-3.4467		-0.6412		2.1156		H		1		UNL1		0.1425
34		H		-4.2808		-2.9921		2.1488		H		1		UNL1		0.1392
35		H		-5.0581		-4.0625		0.0434		H		1		UNL1		0.1355
36		H		-5.0014		-2.7844		-2.0888		H		1		UNL1		0.1395
37		H		-4.1601		-0.4316		-2.1060		H		1		UNL1		0.1429
@<TRIPOS>BOND
1		37		23		1
2		36		22		1
3		23		22		ar
4		23		18		ar
5		22		21		ar
6		26		1		1
7		29		8		1
8		30		9		1
9		8		9		ar
10		8		7		ar
11		9		10		ar
12		28		6		1
13		6		7		1
14		6		5		1
15		7		14		ar
16		10		11		1
17		10		13		ar
18		11		12		3
19		17		16		1
20		17		18		1
21		15		5		ar
22		15		16		ar
23		5		4		ar
24		16		2		ar
25		18		19		ar
26		13		14		ar
27		13		31		1
28		14		32		1
29		4		3		ar
30		2		3		ar
31		2		1		1
32		21		35		1
33		21		20		ar
34		3		27		1
35		1		24		1
36		1		25		1
37		19		20		ar
38		19		33		1
39		20		34		1

