@<TRIPOS>MOLECULE
FXQ-2010-BMC-2370-12G
 37 39 0 0 0
SMALL
MULLIKEN_CHARGES
****
Gaussian 16 #p B3LYP/6-31G* opt
@<TRIPOS>ATOM
1		N		-9.2248		-0.9428		-0.2911		N.1		1		UNL1		-0.4850
2		C		-8.0918		-0.6760		-0.2683		C.1		1		UNL1		0.2272
3		C		-6.6997		-0.3465		-0.2413		C.ar		1		UNL1		0.1311
4		C		-6.2440		0.8709		-0.7780		C.ar		1		UNL1		-0.1404
5		C		-4.8952		1.1828		-0.7484		C.ar		1		UNL1		-0.2053
6		C		-3.9568		0.2942		-0.1841		C.ar		1		UNL1		0.3830
7		N		-2.6224		0.7001		-0.2033		N.pl3		1		UNL1		-0.7675
8		C		-1.4601		0.1098		0.2474		C.ar		1		UNL1		0.6933
9		N		-1.4994		-1.0950		0.8382		N.ar		1		UNL1		-0.4741
10		C		-0.3161		-1.5725		1.2358		C.ar		1		UNL1		0.0707
11		C		0.8826		-0.8923		1.0591		C.ar		1		UNL1		-0.2039
12		C		0.8045		0.3613		0.4288		C.ar		1		UNL1		0.2921
13		C		2.0286		1.1960		0.2254		C.2		1		UNL1		0.1806
14		N		1.8136		2.4683		0.2504		N.2		1		UNL1		-0.1978
15		O		2.9656		3.2236		0.0485		O.2		1		UNL1		-0.4878
16		C		3.3464		0.5280		0.0354		C.ar		1		UNL1		0.0999
17		C		4.4845		0.9228		0.7563		C.ar		1		UNL1		-0.1356
18		C		5.7053		0.2782		0.5736		C.ar		1		UNL1		-0.1391
19		C		5.7961		-0.7645		-0.3485		C.ar		1		UNL1		-0.0603
20		CL		7.3353		-1.5755		-0.5872		Cl		1		UNL1		-0.0121
21		C		4.6839		-1.1741		-1.0823		C.ar		1		UNL1		-0.1351
22		C		3.4651		-0.5299		-0.8798		C.ar		1		UNL1		-0.1609
23		N		-0.3651		0.8581		0.0169		N.ar		1		UNL1		-0.5332
24		C		-4.4108		-0.9246		0.3537		C.ar		1		UNL1		-0.1603
25		C		-5.7653		-1.2317		0.3209		C.ar		1		UNL1		-0.1531
26		H		-6.9532		1.5658		-1.2160		H		1		UNL1		0.1579
27		H		-4.5546		2.1272		-1.1665		H		1		UNL1		0.1377
28		H		-2.4372		1.6040		-0.6202		H		1		UNL1		0.3498
29		H		-0.3361		-2.5467		1.7213		H		1		UNL1		0.1574
30		H		1.8231		-1.3044		1.4019		H		1		UNL1		0.1604
31		H		2.6203		4.1304		0.0822		H		1		UNL1		0.4273
32		H		4.4154		1.7411		1.4633		H		1		UNL1		0.1594
33		H		6.5800		0.5823		1.1384		H		1		UNL1		0.1618
34		H		4.7702		-1.9840		-1.7986		H		1		UNL1		0.1622
35		H		2.5975		-0.8499		-1.4493		H		1		UNL1		0.1534
36		H		-3.6988		-1.6110		0.7883		H		1		UNL1		0.1883
37		H		-6.1083		-2.1735		0.7376		H		1		UNL1		0.1579
@<TRIPOS>BOND
1		34		21		1
2		35		22		1
3		26		4		1
4		27		5		1
5		21		22		ar
6		21		19		ar
7		22		16		ar
8		4		5		ar
9		4		3		ar
10		5		6		ar
11		28		7		1
12		20		19		1
13		19		18		ar
14		1		2		3
15		2		3		1
16		3		25		ar
17		7		6		1
18		7		8		1
19		6		24		ar
20		23		8		ar
21		23		12		ar
22		16		13		1
23		16		17		ar
24		15		31		1
25		15		14		1
26		13		14		2
27		13		12		1
28		8		9		ar
29		25		24		ar
30		25		37		1
31		24		36		1
32		12		11		ar
33		18		17		ar
34		18		33		1
35		17		32		1
36		9		10		ar
37		11		10		ar
38		11		30		1
39		10		29		1

