@<TRIPOS>MOLECULE
FXQ-2009-CMC-219-10E
 43 46 0 0 0
SMALL
MULLIKEN_CHARGES
****
Gaussian 16 #p B3LYP/6-31G* opt
@<TRIPOS>ATOM
1		C		-0.7658		2.3706		-2.1733		C.3		1		UNL1		-0.5143
2		C		-0.7305		1.3611		-1.0577		C.ar		1		UNL1		0.3410
3		C		0.4692		0.9451		-0.4872		C.ar		1		UNL1		-0.2561
4		C		0.3653		-0.0047		0.5408		C.ar		1		UNL1		0.5444
5		O		1.4382		-0.5304		1.1973		O.3		1		UNL1		-0.5400
6		C		2.7217		-0.0665		0.9265		C.ar		1		UNL1		0.2515
7		C		3.1727		1.0872		1.5202		C.ar		1		UNL1		-0.1540
8		C		4.4996		1.5178		1.3001		C.ar		1		UNL1		-0.1565
9		C		5.3391		0.7794		0.4986		C.ar		1		UNL1		-0.1308
10		CL		6.9818		1.3627		0.2545		Cl		1		UNL1		-0.0063
11		C		4.9150		-0.4312		-0.1251		C.ar		1		UNL1		0.1258
12		C		5.7494		-1.2279		-0.9529		C.ar		1		UNL1		-0.1974
13		C		5.2768		-2.3894		-1.5212		C.ar		1		UNL1		-0.1282
14		C		3.9486		-2.8163		-1.2888		C.ar		1		UNL1		-0.1305
15		C		3.1097		-2.0703		-0.4934		C.ar		1		UNL1		-0.1895
16		C		3.5635		-0.8640		0.1022		C.ar		1		UNL1		0.1156
17		N		-0.7905		-0.4906		0.9594		N.ar		1		UNL1		-0.5497
18		C		-1.8877		-0.0141		0.3377		C.ar		1		UNL1		0.6985
19		N		-3.0578		-0.5598		0.8251		N.pl3		1		UNL1		-0.7714
20		C		-4.3981		-0.3680		0.4902		C.ar		1		UNL1		0.3827
21		C		-5.3453		-1.1154		1.2202		C.ar		1		UNL1		-0.2058
22		C		-6.7005		-0.9953		0.9621		C.ar		1		UNL1		-0.1407
23		C		-7.1541		-0.1191		-0.0399		C.ar		1		UNL1		0.1310
24		C		-8.5526		0.0106		-0.3128		C.1		1		UNL1		0.2268
25		N		-9.6908		0.1155		-0.5343		N.1		1		UNL1		-0.4856
26		C		-6.2109		0.6255		-0.7672		C.ar		1		UNL1		-0.1538
27		C		-4.8500		0.5095		-0.5130		C.ar		1		UNL1		-0.1596
28		N		-1.9221		0.8867		-0.6483		N.ar		1		UNL1		-0.5398
29		H		-1.3634		3.2393		-1.8752		H		1		UNL1		0.1806
30		H		-1.2480		1.9375		-3.0568		H		1		UNL1		0.1811
31		H		0.2367		2.7087		-2.4483		H		1		UNL1		0.1603
32		H		1.4224		1.3302		-0.8227		H		1		UNL1		0.1579
33		H		2.5095		1.6598		2.1601		H		1		UNL1		0.1564
34		H		4.8575		2.4292		1.7658		H		1		UNL1		0.1635
35		H		6.7699		-0.9083		-1.1303		H		1		UNL1		0.1624
36		H		5.9312		-2.9856		-2.1507		H		1		UNL1		0.1423
37		H		3.5919		-3.7387		-1.7382		H		1		UNL1		0.1423
38		H		2.0940		-2.3964		-0.2986		H		1		UNL1		0.1597
39		H		-2.8760		-1.2227		1.5681		H		1		UNL1		0.3489
40		H		-5.0066		-1.7963		1.9977		H		1		UNL1		0.1375
41		H		-7.4163		-1.5778		1.5331		H		1		UNL1		0.1576
42		H		-6.5524		1.3043		-1.5425		H		1		UNL1		0.1566
43		H		-4.1294		1.0849		-1.0757		H		1		UNL1		0.1857
@<TRIPOS>BOND
1		30		1		1
2		31		1		1
3		1		29		1
4		1		2		1
5		36		13		1
6		37		14		1
7		42		26		1
8		13		14		ar
9		13		12		ar
10		14		15		ar
11		35		12		1
12		43		27		1
13		2		28		ar
14		2		3		ar
15		12		11		ar
16		32		3		1
17		26		27		ar
18		26		23		ar
19		28		18		ar
20		25		24		3
21		27		20		ar
22		15		38		1
23		15		16		ar
24		3		4		ar
25		24		23		1
26		11		16		ar
27		11		9		ar
28		23		22		ar
29		16		6		ar
30		10		9		1
31		18		19		1
32		18		17		ar
33		20		19		1
34		20		21		ar
35		9		8		ar
36		4		17		ar
37		4		5		1
38		19		39		1
39		6		5		1
40		6		7		ar
41		22		21		ar
42		22		41		1
43		21		40		1
44		8		7		ar
45		8		34		1
46		7		33		1

