@<TRIPOS>MOLECULE
FXQ-2009-CMC-219-10T
 40 43 0 0 0
SMALL
MULLIKEN_CHARGES
****
Gaussian 16 #p B3LYP/6-31G* opt
@<TRIPOS>ATOM
1		N		-9.6938		0.0884		0.7525		N.1		1		UNL1		-0.4855
2		C		-8.5582		0.0395		0.5004		C.1		1		UNL1		0.2271
3		C		-7.1629		-0.0207		0.1893		C.ar		1		UNL1		0.1311
4		C		-6.2070		0.4816		1.0876		C.ar		1		UNL1		-0.1535
5		C		-4.8492		0.4301		0.7982		C.ar		1		UNL1		-0.1593
6		C		-4.4140		-0.1341		-0.4154		C.ar		1		UNL1		0.3826
7		N		-3.0778		-0.2348		-0.8042		N.pl3		1		UNL1		-0.7666
8		C		-1.9001		0.1404		-0.1937		C.ar		1		UNL1		0.7002
9		N		-1.9187		0.7268		1.0108		N.ar		1		UNL1		-0.4840
10		C		-0.7149		1.0429		1.5055		C.ar		1		UNL1		0.0683
11		C		0.4826		0.8000		0.8492		C.ar		1		UNL1		-0.2157
12		C		0.3574		0.1824		-0.4061		C.ar		1		UNL1		0.5452
13		O		1.4167		-0.1404		-1.2000		O.3		1		UNL1		-0.5233
14		C		2.6979		0.2280		-0.8249		C.ar		1		UNL1		0.3146
15		C		3.1581		1.5187		-1.1739		C.ar		1		UNL1		-0.1476
16		C		4.4510		1.8855		-0.8940		C.ar		1		UNL1		-0.2028
17		C		5.3437		0.9819		-0.2589		C.ar		1		UNL1		0.1532
18		C		6.6844		1.3476		0.0342		C.ar		1		UNL1		-0.1949
19		C		7.5425		0.4639		0.6466		C.ar		1		UNL1		-0.1295
20		C		7.0927		-0.8316		0.9934		C.ar		1		UNL1		-0.1323
21		C		5.7999		-1.2229		0.7249		C.ar		1		UNL1		-0.1935
22		C		4.8896		-0.3341		0.0940		C.ar		1		UNL1		0.1248
23		C		3.5374		-0.6787		-0.2086		C.ar		1		UNL1		-0.1931
24		CL		2.9186		-2.2661		0.1940		Cl		1		UNL1		0.0236
25		N		-0.8096		-0.1457		-0.9318		N.ar		1		UNL1		-0.5432
26		C		-5.3737		-0.6386		-1.3169		C.ar		1		UNL1		-0.2056
27		C		-6.7258		-0.5844		-1.0226		C.ar		1		UNL1		-0.1406
28		H		-6.5358		0.9180		2.0255		H		1		UNL1		0.1575
29		H		-4.1194		0.8180		1.4940		H		1		UNL1		0.1894
30		H		-2.9081		-0.6669		-1.7038		H		1		UNL1		0.3502
31		H		-0.7154		1.5167		2.4854		H		1		UNL1		0.1574
32		H		1.4387		1.0622		1.2812		H		1		UNL1		0.1633
33		H		2.4688		2.1921		-1.6729		H		1		UNL1		0.1563
34		H		4.8084		2.8755		-1.1633		H		1		UNL1		0.1472
35		H		7.0198		2.3453		-0.2377		H		1		UNL1		0.1396
36		H		8.5654		0.7572		0.8647		H		1		UNL1		0.1406
37		H		7.7745		-1.5258		1.4765		H		1		UNL1		0.1421
38		H		5.4640		-2.2177		0.9938		H		1		UNL1		0.1614
39		H		-5.0475		-1.0770		-2.2572		H		1		UNL1		0.1380
40		H		-7.4516		-0.9771		-1.7272		H		1		UNL1		0.1577
@<TRIPOS>BOND
1		39		26		1
2		40		27		1
3		30		7		1
4		33		15		1
5		26		27		ar
6		26		6		ar
7		13		14		1
8		13		12		1
9		15		16		ar
10		15		14		ar
11		34		16		1
12		27		3		ar
13		25		12		ar
14		25		8		ar
15		16		17		ar
16		14		23		ar
17		7		6		1
18		7		8		1
19		6		5		ar
20		12		11		ar
21		17		18		ar
22		17		22		ar
23		35		18		1
24		23		22		ar
25		23		24		1
26		8		9		ar
27		18		19		ar
28		22		21		ar
29		3		2		1
30		3		4		ar
31		2		1		3
32		19		36		1
33		19		20		ar
34		21		20		ar
35		21		38		1
36		5		4		ar
37		5		29		1
38		11		32		1
39		11		10		ar
40		20		37		1
41		9		10		ar
42		4		28		1
43		10		31		1

