@<TRIPOS>MOLECULE
FXQ-2009-CMC-219-10Y
 43 46 0 0 0
SMALL
MULLIKEN_CHARGES
****
Gaussian 16 #p B3LYP/6-31G* opt
@<TRIPOS>ATOM
1		C		-1.6459		4.8996		-0.6718		C.3		1		UNL1		-0.5213
2		C		-2.0757		3.4618		-0.5973		C.ar		1		UNL1		0.0871
3		C		-3.3843		3.0492		-0.3931		C.ar		1		UNL1		0.0148
4		N		-3.7795		1.7676		-0.3084		N.ar		1		UNL1		-0.4864
5		C		-2.8107		0.8601		-0.4333		C.ar		1		UNL1		0.7007
6		N		-3.0902		-0.4891		-0.3578		N.pl3		1		UNL1		-0.7704
7		C		-4.2796		-1.1902		-0.1600		C.ar		1		UNL1		0.3830
8		C		-4.1880		-2.5970		-0.1305		C.ar		1		UNL1		-0.2063
9		C		-5.3140		-3.3806		0.0583		C.ar		1		UNL1		-0.1406
10		C		-6.5740		-2.7787		0.2245		C.ar		1		UNL1		0.1309
11		C		-7.7420		-3.5817		0.4195		C.1		1		UNL1		0.2269
12		N		-8.6917		-4.2364		0.5776		N.1		1		UNL1		-0.4855
13		C		-6.6652		-1.3772		0.1957		C.ar		1		UNL1		-0.1536
14		C		-5.5395		-0.5854		0.0067		C.ar		1		UNL1		-0.1599
15		N		-1.5000		1.1188		-0.6400		N.ar		1		UNL1		-0.5630
16		C		-1.1662		2.3905		-0.7158		C.ar		1		UNL1		0.5346
17		O		0.1365		2.7272		-0.9354		O.3		1		UNL1		-0.5601
18		C		1.1037		1.7318		-0.9525		C.ar		1		UNL1		0.3359
19		C		1.4784		1.1864		-2.1994		C.ar		1		UNL1		-0.1487
20		C		2.4969		0.2689		-2.2700		C.ar		1		UNL1		-0.2016
21		C		3.1845		-0.1433		-1.0980		C.ar		1		UNL1		0.1549
22		C		4.2394		-1.0919		-1.1620		C.ar		1		UNL1		-0.2262
23		C		4.8921		-1.4749		-0.0165		C.ar		1		UNL1		0.0841
24		BR		6.3093		-2.7520		-0.1073		Br		1		UNL1		-0.1184
25		C		4.5367		-0.9417		1.2425		C.ar		1		UNL1		-0.1503
26		C		3.5186		-0.0207		1.3296		C.ar		1		UNL1		-0.1874
27		C		2.8124		0.4077		0.1744		C.ar		1		UNL1		0.0941
28		C		1.7514		1.3584		0.2049		C.ar		1		UNL1		-0.0079
29		BR		1.1966		2.1447		1.8487		Br		1		UNL1		-0.0980
30		H		-1.1943		5.1365		-1.6425		H		1		UNL1		0.1715
31		H		-0.8940		5.1271		0.0926		H		1		UNL1		0.1790
32		H		-2.5013		5.5659		-0.5223		H		1		UNL1		0.1581
33		H		-4.1731		3.7927		-0.2857		H		1		UNL1		0.1495
34		H		-2.2554		-1.0516		-0.4615		H		1		UNL1		0.3479
35		H		-3.2188		-3.0740		-0.2575		H		1		UNL1		0.1364
36		H		-5.2265		-4.4621		0.0787		H		1		UNL1		0.1574
37		H		-7.6339		-0.9044		0.3236		H		1		UNL1		0.1576
38		H		-5.6167		0.4920		-0.0136		H		1		UNL1		0.1898
39		H		0.9462		1.5152		-3.0858		H		1		UNL1		0.1543
40		H		2.7896		-0.1525		-3.2274		H		1		UNL1		0.1493
41		H		4.5216		-1.5079		-2.1236		H		1		UNL1		0.1590
42		H		5.0687		-1.2622		2.1313		H		1		UNL1		0.1617
43		H		3.2441		0.3891		2.2949		H		1		UNL1		0.1671
@<TRIPOS>BOND
1		40		20		1
2		39		19		1
3		20		19		ar
4		20		21		ar
5		19		18		ar
6		41		22		1
7		30		1		1
8		22		21		ar
9		22		23		ar
10		21		27		ar
11		18		17		1
12		18		28		ar
13		17		16		1
14		16		15		ar
15		16		2		ar
16		1		2		1
17		1		32		1
18		1		31		1
19		15		5		ar
20		2		3		ar
21		34		6		1
22		5		6		1
23		5		4		ar
24		3		4		ar
25		3		33		1
26		6		7		1
27		35		8		1
28		7		8		ar
29		7		14		ar
30		8		9		ar
31		24		23		1
32		23		25		ar
33		38		14		1
34		14		13		ar
35		9		36		1
36		9		10		ar
37		27		28		ar
38		27		26		ar
39		13		10		ar
40		13		37		1
41		28		29		1
42		10		11		1
43		11		12		3
44		25		26		ar
45		25		42		1
46		26		43		1

