@<TRIPOS>MOLECULE
FXQ-2009-CMC-219-10U
 43 46 0 0 0
SMALL
MULLIKEN_CHARGES
****
Gaussian 16 #p B3LYP/6-31G* opt
@<TRIPOS>ATOM
1		C		0.8789		1.8328		2.6488		C.3		1		UNL1		-0.5140
2		C		0.8685		1.1884		1.2888		C.ar		1		UNL1		0.3408
3		C		-0.3156		0.9807		0.5881		C.ar		1		UNL1		-0.2501
4		C		-0.1871		0.3694		-0.6677		C.ar		1		UNL1		0.5540
5		O		-1.2426		0.1043		-1.4910		O.3		1		UNL1		-0.5316
6		C		-2.5307		0.4268		-1.0989		C.ar		1		UNL1		0.2901
7		C		-3.0936		1.6141		-1.6205		C.ar		1		UNL1		-0.1536
8		C		-4.3972		1.9383		-1.3375		C.ar		1		UNL1		-0.2015
9		C		-5.1978		1.0954		-0.5224		C.ar		1		UNL1		0.1529
10		C		-6.5474		1.4202		-0.2216		C.ar		1		UNL1		-0.1961
11		C		-7.3163		0.5964		0.5672		C.ar		1		UNL1		-0.1294
12		C		-6.7631		-0.5953		1.0916		C.ar		1		UNL1		-0.1326
13		C		-5.4588		-0.9437		0.8216		C.ar		1		UNL1		-0.1868
14		C		-4.6380		-0.1157		0.0105		C.ar		1		UNL1		0.0901
15		C		-3.2812		-0.4201		-0.3088		C.ar		1		UNL1		-0.0142
16		BR		-2.4610		-2.0085		0.3497		Br		1		UNL1		-0.0927
17		N		0.9745		0.0042		-1.1782		N.ar		1		UNL1		-0.5487
18		C		2.0552		0.2515		-0.4115		C.ar		1		UNL1		0.6997
19		N		3.2341		-0.1574		-1.0021		N.pl3		1		UNL1		-0.7718
20		C		4.5634		-0.1058		-0.5854		C.ar		1		UNL1		0.3832
21		C		5.5253		-0.6355		-1.4706		C.ar		1		UNL1		-0.2058
22		C		6.8717		-0.6297		-1.1474		C.ar		1		UNL1		-0.1408
23		C		7.3021		-0.0909		0.0783		C.ar		1		UNL1		0.1306
24		C		8.6914		-0.0808		0.4195		C.1		1		UNL1		0.2263
25		N		9.8223		-0.0728		0.6964		N.1		1		UNL1		-0.4866
26		C		6.3444		0.4365		0.9603		C.ar		1		UNL1		-0.1539
27		C		4.9923		0.4337		0.6420		C.ar		1		UNL1		-0.1597
28		N		2.0673		0.8252		0.7947		N.ar		1		UNL1		-0.5409
29		H		-0.1273		2.1060		2.9773		H		1		UNL1		0.1592
30		H		1.3173		1.1493		3.3846		H		1		UNL1		0.1811
31		H		1.5040		2.7327		2.6341		H		1		UNL1		0.1792
32		H		-1.2755		1.2709		0.9932		H		1		UNL1		0.1561
33		H		-2.4713		2.2420		-2.2497		H		1		UNL1		0.1568
34		H		-4.8334		2.8488		-1.7390		H		1		UNL1		0.1464
35		H		-6.9618		2.3383		-0.6307		H		1		UNL1		0.1391
36		H		-8.3472		0.8575		0.7888		H		1		UNL1		0.1399
37		H		-7.3738		-1.2430		1.7142		H		1		UNL1		0.1413
38		H		-5.0402		-1.8579		1.2265		H		1		UNL1		0.1595
39		H		3.0680		-0.5755		-1.9088		H		1		UNL1		0.3491
40		H		5.2045		-1.0551		-2.4213		H		1		UNL1		0.1373
41		H		7.5987		-1.0414		-1.8399		H		1		UNL1		0.1569
42		H		6.6679		0.8541		1.9087		H		1		UNL1		0.1559
43		H		4.2603		0.8403		1.3245		H		1		UNL1		0.1856
@<TRIPOS>BOND
1		40		21		1
2		33		7		1
3		39		19		1
4		41		22		1
5		34		8		1
6		7		8		ar
7		7		6		ar
8		5		6		1
9		5		4		1
10		21		22		ar
11		21		20		ar
12		8		9		ar
13		17		4		ar
14		17		18		ar
15		22		23		ar
16		6		15		ar
17		19		20		1
18		19		18		1
19		4		3		ar
20		35		10		1
21		20		27		ar
22		9		10		ar
23		9		14		ar
24		18		28		ar
25		15		14		ar
26		15		16		1
27		10		11		ar
28		14		13		ar
29		23		24		1
30		23		26		ar
31		24		25		3
32		11		36		1
33		11		12		ar
34		3		32		1
35		3		2		ar
36		27		26		ar
37		27		43		1
38		28		2		ar
39		13		12		ar
40		13		38		1
41		26		42		1
42		12		37		1
43		2		1		1
44		31		1		1
45		1		29		1
46		1		30		1

