@<TRIPOS>MOLECULE
FXQ-2009-CMC-219-10F
 43 46 0 0 0
SMALL
MULLIKEN_CHARGES
****
Gaussian 16 #p B3LYP/6-31G* opt
@<TRIPOS>ATOM
1		C		0.8318		-4.6212		-0.3412		C.3		1		UNL1		-0.5196
2		C		0.0194		-3.3576		-0.2937		C.ar		1		UNL1		0.0844
3		C		-1.3624		-3.3294		-0.1754		C.ar		1		UNL1		0.0140
4		N		-2.1062		-2.2111		-0.1337		N.ar		1		UNL1		-0.4863
5		C		-1.4241		-1.0680		-0.2158		C.ar		1		UNL1		0.6985
6		N		-2.0744		0.1485		-0.1817		N.pl3		1		UNL1		-0.7701
7		C		-3.4222		0.4883		-0.0661		C.ar		1		UNL1		0.3826
8		C		-3.7298		1.8645		-0.0587		C.ar		1		UNL1		-0.2063
9		C		-5.0392		2.3013		0.0513		C.ar		1		UNL1		-0.1407
10		C		-6.0880		1.3705		0.1579		C.ar		1		UNL1		0.1309
11		C		-7.4435		1.8142		0.2720		C.1		1		UNL1		0.2269
12		N		-8.5460		2.1764		0.3648		N.1		1		UNL1		-0.4856
13		C		-5.7817		-0.0003		0.1504		C.ar		1		UNL1		-0.1536
14		C		-4.4702		-0.4451		0.0403		C.ar		1		UNL1		-0.1601
15		N		-0.0833		-0.9476		-0.3363		N.ar		1		UNL1		-0.5591
16		C		0.6013		-2.0731		-0.3717		C.ar		1		UNL1		0.5233
17		O		1.9571		-2.0320		-0.4848		O.3		1		UNL1		-0.5691
18		C		2.6025		-0.7999		-0.6227		C.ar		1		UNL1		0.2951
19		C		2.7538		-0.2549		-1.8720		C.ar		1		UNL1		-0.1501
20		C		3.4754		0.9483		-2.0296		C.ar		1		UNL1		-0.1586
21		C		4.0273		1.5679		-0.9328		C.ar		1		UNL1		-0.1304
22		CL		4.9152		3.0680		-1.1837		Cl		1		UNL1		-0.0100
23		C		3.9018		1.0277		0.3809		C.ar		1		UNL1		0.1231
24		C		4.4619		1.6299		1.5387		C.ar		1		UNL1		-0.1977
25		C		4.3072		1.0539		2.7792		C.ar		1		UNL1		-0.1293
26		C		3.5875		-0.1548		2.9261		C.ar		1		UNL1		-0.1310
27		C		3.0304		-0.7669		1.8272		C.ar		1		UNL1		-0.1870
28		C		3.1658		-0.1971		0.5342		C.ar		1		UNL1		0.1244
29		H		1.4115		-4.6914		-1.2691		H		1		UNL1		0.1735
30		H		0.1813		-5.4991		-0.2780		H		1		UNL1		0.1589
31		H		1.5512		-4.6702		0.4849		H		1		UNL1		0.1715
32		H		-1.9163		-4.2651		-0.1100		H		1		UNL1		0.1489
33		H		-1.4255		0.9221		-0.2494		H		1		UNL1		0.3491
34		H		-2.9270		2.5937		-0.1402		H		1		UNL1		0.1374
35		H		-5.2592		3.3639		0.0557		H		1		UNL1		0.1576
36		H		-6.5852		-0.7255		0.2322		H		1		UNL1		0.1574
37		H		-4.2415		-1.5010		0.0354		H		1		UNL1		0.1895
38		H		2.3185		-0.7495		-2.7337		H		1		UNL1		0.1495
39		H		3.5949		1.3834		-3.0157		H		1		UNL1		0.1613
40		H		5.0177		2.5543		1.4308		H		1		UNL1		0.1613
41		H		4.7437		1.5300		3.6526		H		1		UNL1		0.1408
42		H		3.4767		-0.6009		3.9103		H		1		UNL1		0.1397
43		H		2.4852		-1.6984		1.9318		H		1		UNL1		0.1449
@<TRIPOS>BOND
1		39		20		1
2		38		19		1
3		20		19		ar
4		20		21		ar
5		19		18		ar
6		29		1		1
7		22		21		1
8		21		23		ar
9		18		17		1
10		18		28		ar
11		17		16		1
12		16		15		ar
13		16		2		ar
14		1		2		1
15		1		30		1
16		1		31		1
17		15		5		ar
18		2		3		ar
19		33		6		1
20		5		6		1
21		5		4		ar
22		6		7		1
23		3		4		ar
24		3		32		1
25		34		8		1
26		7		8		ar
27		7		14		ar
28		8		9		ar
29		37		14		1
30		14		13		ar
31		9		35		1
32		9		10		ar
33		13		10		ar
34		13		36		1
35		10		11		1
36		11		12		3
37		23		28		ar
38		23		24		ar
39		28		27		ar
40		40		24		1
41		24		25		ar
42		27		43		1
43		27		26		ar
44		25		26		ar
45		25		41		1
46		26		42		1

