@<TRIPOS>MOLECULE
FXQ-2009-CMC-219-10K
 43 46 0 0 0
SMALL
MULLIKEN_CHARGES
****
Gaussian 16 #p B3LYP/6-31G* opt
@<TRIPOS>ATOM
1		C		-2.1357		4.4991		0.1820		C.3		1		UNL1		-0.5140
2		C		-1.2727		3.2702		0.0893		C.ar		1		UNL1		0.3440
3		C		0.1110		3.3467		0.0262		C.ar		1		UNL1		-0.2570
4		C		0.7951		2.1226		-0.0573		C.ar		1		UNL1		0.5788
5		O		2.1475		2.1833		-0.1052		O.3		1		UNL1		-0.5662
6		C		2.8999		1.0179		-0.2821		C.ar		1		UNL1		0.3559
7		C		2.8587		0.3309		-1.5180		C.ar		1		UNL1		-0.1386
8		C		3.6815		-0.7528		-1.7113		C.ar		1		UNL1		-0.2099
9		C		4.5747		-1.1913		-0.6954		C.ar		1		UNL1		0.1465
10		C		5.4357		-2.3068		-0.8715		C.ar		1		UNL1		-0.1938
11		C		6.2915		-2.7029		0.1318		C.ar		1		UNL1		-0.1343
12		C		6.3252		-1.9981		1.3597		C.ar		1		UNL1		-0.1358
13		C		5.5042		-0.9112		1.5620		C.ar		1		UNL1		-0.1891
14		C		4.6093		-0.4782		0.5474		C.ar		1		UNL1		0.1277
15		C		3.7477		0.6373		0.7266		C.ar		1		UNL1		-0.2380
16		N		0.1851		0.9517		-0.0772		N.ar		1		UNL1		-0.5654
17		C		-1.1651		0.9958		-0.0114		C.ar		1		UNL1		0.6983
18		N		-1.7390		-0.2595		-0.0346		N.pl3		1		UNL1		-0.7724
19		C		-3.0651		-0.6880		0.0127		C.ar		1		UNL1		0.3827
20		C		-3.2821		-2.0810		-0.0259		C.ar		1		UNL1		-0.2060
21		C		-4.5635		-2.6042		0.0144		C.ar		1		UNL1		-0.1408
22		C		-5.6750		-1.7464		0.0951		C.ar		1		UNL1		0.1308
23		C		-7.0021		-2.2793		0.1367		C.1		1		UNL1		0.2266
24		N		-8.0816		-2.7141		0.1703		N.1		1		UNL1		-0.4860
25		C		-5.4591		-0.3589		0.1339		C.ar		1		UNL1		-0.1539
26		C		-4.1761		0.1723		0.0938		C.ar		1		UNL1		-0.1595
27		N		-1.9252		2.0870		0.0703		N.ar		1		UNL1		-0.5436
28		H		-2.7421		4.4649		1.0941		H		1		UNL1		0.1797
29		H		-1.5389		5.4149		0.1887		H		1		UNL1		0.1597
30		H		-2.8311		4.5354		-0.6642		H		1		UNL1		0.1792
31		H		0.6498		4.2857		0.0396		H		1		UNL1		0.1512
32		H		2.1816		0.6704		-2.2944		H		1		UNL1		0.1434
33		H		3.6600		-1.2885		-2.6572		H		1		UNL1		0.1378
34		H		5.4076		-2.8448		-1.8163		H		1		UNL1		0.1326
35		H		6.9452		-3.5582		-0.0152		H		1		UNL1		0.1335
36		H		7.0045		-2.3193		2.1446		H		1		UNL1		0.1341
37		H		5.5296		-0.3692		2.5043		H		1		UNL1		0.1338
38		H		3.7609		1.1950		1.6582		H		1		UNL1		0.1424
39		H		-1.0384		-0.9878		-0.0912		H		1		UNL1		0.3487
40		H		-2.4304		-2.7544		-0.0880		H		1		UNL1		0.1370
41		H		-4.7132		-3.6786		-0.0161		H		1		UNL1		0.1571
42		H		-6.3114		0.3104		0.1965		H		1		UNL1		0.1565
43		H		-4.0156		1.2402		0.1245		H		1		UNL1		0.1865
@<TRIPOS>BOND
1		33		8		1
2		32		7		1
3		34		10		1
4		8		7		ar
5		8		9		ar
6		7		6		ar
7		10		9		ar
8		10		11		ar
9		9		14		ar
10		30		1		1
11		6		5		1
12		6		15		ar
13		5		4		1
14		39		18		1
15		40		20		1
16		16		4		ar
17		16		17		ar
18		4		3		ar
19		18		17		1
20		18		19		1
21		20		19		ar
22		20		21		ar
23		41		21		1
24		35		11		1
25		17		27		ar
26		19		26		ar
27		21		22		ar
28		3		31		1
29		3		2		ar
30		27		2		ar
31		2		1		1
32		26		43		1
33		26		25		ar
34		22		25		ar
35		22		23		1
36		11		12		ar
37		25		42		1
38		23		24		3
39		1		29		1
40		1		28		1
41		14		15		ar
42		14		13		ar
43		15		38		1
44		12		13		ar
45		12		36		1
46		13		37		1

