@<TRIPOS>MOLECULE
FXQ-2009-CMC-219-10R
 43 46 0 0 0
SMALL
MULLIKEN_CHARGES
****
Gaussian 16 #p B3LYP/6-31G* opt
@<TRIPOS>ATOM
1		C		2.2818		4.4749		0.0232		C.3		1		UNL1		-0.5142
2		C		1.4395		3.2345		0.1468		C.ar		1		UNL1		0.3434
3		C		0.0598		3.2937		0.2839		C.ar		1		UNL1		-0.2528
4		C		-0.6001		2.0599		0.3870		C.ar		1		UNL1		0.5858
5		O		-1.9517		2.0982		0.5232		O.3		1		UNL1		-0.5605
6		C		-2.6602		0.9093		0.6440		C.ar		1		UNL1		0.3601
7		C		-2.7762		0.3133		1.9191		C.ar		1		UNL1		-0.1402
8		C		-3.5522		-0.8063		2.0844		C.ar		1		UNL1		-0.2071
9		C		-4.2483		-1.3792		0.9871		C.ar		1		UNL1		0.1540
10		C		-5.0568		-2.5363		1.1439		C.ar		1		UNL1		-0.1962
11		C		-5.7291		-3.0824		0.0750		C.ar		1		UNL1		-0.1304
12		C		-5.6205		-2.4891		-1.2045		C.ar		1		UNL1		-0.1332
13		C		-4.8468		-1.3659		-1.3955		C.ar		1		UNL1		-0.1942
14		C		-4.1402		-0.7787		-0.3127		C.ar		1		UNL1		0.1229
15		C		-3.3216		0.3833		-0.4453		C.ar		1		UNL1		-0.1913
16		CL		-3.1446		1.1658		-2.0028		Cl		1		UNL1		0.0129
17		N		0.0200		0.8963		0.3613		N.ar		1		UNL1		-0.5663
18		C		1.3644		0.9570		0.2213		C.ar		1		UNL1		0.7016
19		N		1.9533		-0.2907		0.1953		N.pl3		1		UNL1		-0.7730
20		C		3.2801		-0.7015		0.0695		C.ar		1		UNL1		0.3828
21		C		4.3747		0.1740		-0.0573		C.ar		1		UNL1		-0.1593
22		C		5.6599		-0.3402		-0.1746		C.ar		1		UNL1		-0.1539
23		C		5.8939		-1.7252		-0.1695		C.ar		1		UNL1		0.1310
24		C		7.2231		-2.2408		-0.2904		C.1		1		UNL1		0.2267
25		N		8.3043		-2.6614		-0.3882		N.1		1		UNL1		-0.4858
26		C		4.7987		-2.5983		-0.0433		C.ar		1		UNL1		-0.1407
27		C		3.5152		-2.0919		0.0741		C.ar		1		UNL1		-0.2058
28		N		2.1052		2.0593		0.1151		N.ar		1		UNL1		-0.5427
29		H		2.8352		4.4604		-0.9225		H		1		UNL1		0.1808
30		H		3.0238		4.5078		0.8288		H		1		UNL1		0.1791
31		H		1.6751		5.3833		0.0634		H		1		UNL1		0.1604
32		H		-0.4911		4.2253		0.3072		H		1		UNL1		0.1542
33		H		-2.2450		0.7664		2.7495		H		1		UNL1		0.1493
34		H		-3.6452		-1.2670		3.0641		H		1		UNL1		0.1431
35		H		-5.1337		-2.9834		2.1319		H		1		UNL1		0.1370
36		H		-6.3437		-3.9679		0.2100		H		1		UNL1		0.1378
37		H		-6.1532		-2.9239		-2.0456		H		1		UNL1		0.1392
38		H		-4.7693		-0.9179		-2.3795		H		1		UNL1		0.1591
39		H		1.2657		-1.0289		0.2761		H		1		UNL1		0.3488
40		H		4.2003		1.2401		-0.0628		H		1		UNL1		0.1867
41		H		6.4996		0.3408		-0.2722		H		1		UNL1		0.1568
42		H		4.9625		-3.6710		-0.0382		H		1		UNL1		0.1572
43		H		2.6760		-2.7770		0.1707		H		1		UNL1		0.1370
@<TRIPOS>BOND
1		38		13		1
2		37		12		1
3		16		15		1
4		13		12		ar
5		13		14		ar
6		12		11		ar
7		29		1		1
8		15		14		ar
9		15		6		ar
10		25		24		3
11		14		9		ar
12		24		23		1
13		41		22		1
14		22		23		ar
15		22		21		ar
16		23		26		ar
17		40		21		1
18		21		20		ar
19		26		42		1
20		26		27		ar
21		1		31		1
22		1		2		1
23		1		30		1
24		20		27		ar
25		20		19		1
26		27		43		1
27		11		36		1
28		11		10		ar
29		28		2		ar
30		28		18		ar
31		2		3		ar
32		19		18		1
33		19		39		1
34		18		17		ar
35		3		32		1
36		3		4		ar
37		17		4		ar
38		4		5		1
39		5		6		1
40		6		7		ar
41		9		10		ar
42		9		8		ar
43		10		35		1
44		7		8		ar
45		7		33		1
46		8		34		1

