@<TRIPOS>MOLECULE
FXQ-2010-BMC-2370-12Q
 43 45 0 0 0
SMALL
MULLIKEN_CHARGES
****
Gaussian 16 #p B3LYP/6-31G* opt
@<TRIPOS>ATOM
1		C		2.8597		-2.9706		-2.3492		C.3		1		UNL1		-0.5309
2		C		3.2357		-2.0866		-1.1819		C.ar		1		UNL1		0.1738
3		C		4.0557		-2.5715		-0.1543		C.ar		1		UNL1		-0.2279
4		C		4.4427		-1.7681		0.9225		C.ar		1		UNL1		0.1742
5		C		5.3010		-2.3218		2.0371		C.3		1		UNL1		-0.5304
6		C		4.0019		-0.4405		0.9577		C.ar		1		UNL1		-0.1951
7		C		3.1738		0.0678		-0.0487		C.ar		1		UNL1		0.1384
8		C		2.7065		1.4810		-0.0052		C.2		1		UNL1		0.1808
9		N		3.4566		2.5240		0.1276		N.2		1		UNL1		-0.2348
10		O		4.8130		2.2301		0.2005		O.2		1		UNL1		-0.4806
11		C		1.2507		1.8008		-0.1062		C.ar		1		UNL1		0.3016
12		C		0.7912		3.1102		-0.3413		C.ar		1		UNL1		-0.1825
13		C		-0.5824		3.2804		-0.3950		C.ar		1		UNL1		0.0656
14		N		-1.4613		2.2788		-0.2411		N.ar		1		UNL1		-0.4780
15		C		-0.9183		1.0750		-0.0255		C.ar		1		UNL1		0.6925
16		N		-1.7215		-0.0345		0.1496		N.pl3		1		UNL1		-0.7685
17		C		-3.1051		-0.2032		0.1568		C.ar		1		UNL1		0.3833
18		C		-3.5824		-1.5112		0.3819		C.ar		1		UNL1		-0.2058
19		C		-4.9404		-1.7802		0.4060		C.ar		1		UNL1		-0.1407
20		C		-5.8700		-0.7441		0.2047		C.ar		1		UNL1		0.1306
21		C		-7.2747		-1.0145		0.2279		C.1		1		UNL1		0.2266
22		N		-8.4175		-1.2363		0.2469		N.1		1		UNL1		-0.4861
23		C		-5.3950		0.5588		-0.0193		C.ar		1		UNL1		-0.1534
24		C		-4.0338		0.8353		-0.0448		C.ar		1		UNL1		-0.1606
25		N		0.3972		0.7867		0.0487		N.ar		1		UNL1		-0.5619
26		C		2.7904		-0.7654		-1.1094		C.ar		1		UNL1		-0.2015
27		H		3.6864		-3.0557		-3.0668		H		1		UNL1		0.1676
28		H		2.6137		-3.9868		-2.0205		H		1		UNL1		0.1582
29		H		1.9960		-2.5724		-2.8912		H		1		UNL1		0.1566
30		H		4.4014		-3.6033		-0.1956		H		1		UNL1		0.1167
31		H		6.0155		-1.5752		2.4006		H		1		UNL1		0.1609
32		H		5.8668		-3.1996		1.7084		H		1		UNL1		0.1563
33		H		4.6894		-2.6293		2.8958		H		1		UNL1		0.1662
34		H		4.3055		0.2043		1.7765		H		1		UNL1		0.1322
35		H		5.2088		3.1129		0.2821		H		1		UNL1		0.4237
36		H		1.4813		3.9325		-0.4719		H		1		UNL1		0.1645
37		H		-1.0144		4.2633		-0.5743		H		1		UNL1		0.1541
38		H		-1.1690		-0.8678		0.3085		H		1		UNL1		0.3487
39		H		-2.8731		-2.3205		0.5393		H		1		UNL1		0.1366
40		H		-5.2912		-2.7922		0.5807		H		1		UNL1		0.1568
41		H		-6.1054		1.3645		-0.1754		H		1		UNL1		0.1573
42		H		-3.6760		1.8400		-0.2173		H		1		UNL1		0.1891
43		H		2.1419		-0.3763		-1.8890		H		1		UNL1		0.1255
@<TRIPOS>BOND
1		27		1		1
2		29		1		1
3		1		28		1
4		1		2		1
5		43		26		1
6		2		26		ar
7		2		3		ar
8		26		7		ar
9		37		13		1
10		36		12		1
11		13		12		ar
12		13		14		ar
13		12		11		ar
14		14		15		ar
15		42		24		1
16		30		3		1
17		41		23		1
18		3		4		ar
19		11		8		1
20		11		25		ar
21		7		8		1
22		7		6		ar
23		24		23		ar
24		24		17		ar
25		15		25		ar
26		15		16		1
27		23		20		ar
28		8		9		2
29		9		10		1
30		16		17		1
31		16		38		1
32		17		18		ar
33		10		35		1
34		20		21		1
35		20		19		ar
36		21		22		3
37		18		19		ar
38		18		39		1
39		19		40		1
40		4		6		ar
41		4		5		1
42		6		34		1
43		32		5		1
44		5		31		1
45		5		33		1

