@<TRIPOS>MOLECULE
FXQ-2010-BMC-2370-12J
 37 39 0 0 0
SMALL
MULLIKEN_CHARGES
****
Gaussian 16 #p B3LYP/6-31G* opt
@<TRIPOS>ATOM
1		N		9.9361		-1.1634		-0.2137		N.1		1		UNL1		-0.4852
2		C		8.8138		-0.8542		-0.1951		C.1		1		UNL1		0.2272
3		C		7.4348		-0.4736		-0.1730		C.ar		1		UNL1		0.1311
4		C		6.4448		-1.3930		0.2109		C.ar		1		UNL1		-0.1532
5		C		5.1021		-1.0374		0.2365		C.ar		1		UNL1		-0.1603
6		C		4.7168		0.2664		-0.1277		C.ar		1		UNL1		0.3827
7		N		3.3999		0.7263		-0.1386		N.pl3		1		UNL1		-0.7678
8		C		2.1983		0.1255		0.1711		C.ar		1		UNL1		0.6944
9		N		2.1677		-1.1550		0.5775		N.ar		1		UNL1		-0.4740
10		C		0.9514		-1.6331		0.8544		C.ar		1		UNL1		0.0718
11		C		-0.2130		-0.8830		0.7371		C.ar		1		UNL1		-0.2138
12		C		-0.0614		0.4443		0.2998		C.ar		1		UNL1		0.3190
13		C		-1.2407		1.3436		0.1576		C.2		1		UNL1		0.1697
14		N		-0.9920		2.6129		0.1373		N.2		1		UNL1		-0.1299
15		O		-2.0450		3.4718		-0.0182		O.2		1		UNL1		-0.4774
16		C		-2.6134		0.7544		0.0622		C.ar		1		UNL1		-0.0002
17		C		-2.9717		-0.0532		-1.0295		C.ar		1		UNL1		-0.1428
18		C		-4.2505		-0.5972		-1.1279		C.ar		1		UNL1		-0.1504
19		C		-5.1838		-0.3313		-0.1252		C.ar		1		UNL1		0.0871
20		BR		-6.9351		-1.0754		-0.2541		Br		1		UNL1		-0.1037
21		C		-4.8569		0.4677		0.9686		C.ar		1		UNL1		-0.1461
22		C		-3.5734		1.0083		1.0569		C.ar		1		UNL1		-0.1741
23		N		1.1433		0.9434		0.0102		N.ar		1		UNL1		-0.5368
24		C		5.7110		1.1894		-0.5127		C.ar		1		UNL1		-0.2053
25		C		7.0477		0.8288		-0.5360		C.ar		1		UNL1		-0.1405
26		H		6.7348		-2.4003		0.4931		H		1		UNL1		0.1574
27		H		4.3471		-1.7507		0.5336		H		1		UNL1		0.1876
28		H		3.2659		1.6895		-0.4214		H		1		UNL1		0.3528
29		H		0.9130		-2.6685		1.1886		H		1		UNL1		0.1565
30		H		-1.1802		-1.3031		0.9815		H		1		UNL1		0.1562
31		H		-2.8710		2.9573		-0.1589		H		1		UNL1		0.3968
32		H		-2.2430		-0.2574		-1.8087		H		1		UNL1		0.1629
33		H		-4.5219		-1.2194		-1.9736		H		1		UNL1		0.1690
34		H		-5.5911		0.6615		1.7428		H		1		UNL1		0.1698
35		H		-3.3102		1.6207		1.9152		H		1		UNL1		0.1712
36		H		5.4237		2.1995		-0.7952		H		1		UNL1		0.1399
37		H		7.8004		1.5512		-0.8347		H		1		UNL1		0.1583
@<TRIPOS>BOND
1		33		18		1
2		32		17		1
3		18		17		ar
4		18		19		ar
5		17		16		ar
6		37		25		1
7		36		24		1
8		25		24		ar
9		25		3		ar
10		24		6		ar
11		28		7		1
12		20		19		1
13		1		2		3
14		2		3		1
15		3		4		ar
16		31		15		1
17		7		6		1
18		7		8		1
19		6		5		ar
20		19		21		ar
21		15		14		1
22		23		8		ar
23		23		12		ar
24		16		13		1
25		16		22		ar
26		14		13		2
27		13		12		1
28		8		9		ar
29		4		5		ar
30		4		26		1
31		5		27		1
32		12		11		ar
33		9		10		ar
34		11		10		ar
35		11		30		1
36		10		29		1
37		21		22		ar
38		21		34		1
39		22		35		1

