@<TRIPOS>MOLECULE
FXQ-2009-CMC-219-10AF
 34 36 0 0 0
SMALL
MULLIKEN_CHARGES
****
Gaussian 16 #p B3LYP/6-31G* opt
@<TRIPOS>ATOM
1		N		8.2184		-0.5413		-0.0006		N.1		1		UNL1		-0.4859
2		C		7.0758		-0.3182		-0.0004		C.1		1		UNL1		0.2268
3		C		5.6719		-0.0421		-0.0005		C.ar		1		UNL1		0.1309
4		C		4.7362		-1.0897		0.0014		C.ar		1		UNL1		-0.1536
5		C		3.3703		-0.8361		0.0014		C.ar		1		UNL1		-0.1595
6		C		2.9058		0.4924		-0.0005		C.ar		1		UNL1		0.3826
7		N		1.5595		0.8573		-0.0008		N.pl3		1		UNL1		-0.7660
8		C		0.3944		0.1190		0.0008		C.ar		1		UNL1		0.6981
9		N		0.4426		-1.2198		0.0031		N.ar		1		UNL1		-0.4850
10		C		-0.7514		-1.8279		0.0045		C.ar		1		UNL1		0.0676
11		C		-1.9650		-1.1576		0.0037		C.ar		1		UNL1		-0.2224
12		C		-1.8724		0.2456		0.0012		C.ar		1		UNL1		0.5365
13		O		-2.9473		1.0753		0.0003		O.3		1		UNL1		-0.5288
14		C		-4.2365		0.5414		-0.0005		C.ar		1		UNL1		0.3110
15		C		-4.8788		0.3156		-1.2165		C.ar		1		UNL1		-0.1489
16		C		-6.1968		-0.1443		-1.2111		C.ar		1		UNL1		-0.1411
17		C		-6.8587		-0.3715		-0.0023		C.ar		1		UNL1		-0.1208
18		C		-6.2018		-0.1346		1.2073		C.ar		1		UNL1		-0.1411
19		C		-4.8839		0.3252		1.2145		C.ar		1		UNL1		-0.1490
20		N		-0.7136		0.8850		-0.0002		N.ar		1		UNL1		-0.5435
21		C		3.8454		1.5440		-0.0024		C.ar		1		UNL1		-0.2057
22		C		5.2056		1.2846		-0.0024		C.ar		1		UNL1		-0.1406
23		H		5.0874		-2.1168		0.0029		H		1		UNL1		0.1572
24		H		2.6561		-1.6467		0.0029		H		1		UNL1		0.1892
25		H		1.3683		1.8512		-0.0024		H		1		UNL1		0.3492
26		H		-0.7275		-2.9161		0.0065		H		1		UNL1		0.1560
27		H		-2.9112		-1.6810		0.0050		H		1		UNL1		0.1637
28		H		-4.3499		0.5092		-2.1445		H		1		UNL1		0.1506
29		H		-6.7066		-0.3207		-2.1540		H		1		UNL1		0.1438
30		H		-7.8851		-0.7267		-0.0031		H		1		UNL1		0.1396
31		H		-6.7155		-0.3036		2.1495		H		1		UNL1		0.1438
32		H		-4.3586		0.5262		2.1429		H		1		UNL1		0.1506
33		H		3.4966		2.5742		-0.0039		H		1		UNL1		0.1374
34		H		5.9157		2.1053		-0.0039		H		1		UNL1		0.1573
@<TRIPOS>BOND
1		29		16		1
2		28		15		1
3		15		16		ar
4		15		14		ar
5		16		17		ar
6		33		21		1
7		34		22		1
8		30		17		1
9		21		22		ar
10		21		6		ar
11		22		3		ar
12		25		7		1
13		17		18		ar
14		7		6		1
15		7		8		1
16		1		2		3
17		6		5		ar
18		14		13		1
19		14		19		ar
20		3		2		1
21		3		4		ar
22		20		8		ar
23		20		12		ar
24		13		12		1
25		8		9		ar
26		12		11		ar
27		5		4		ar
28		5		24		1
29		4		23		1
30		9		10		ar
31		11		10		ar
32		11		27		1
33		10		26		1
34		18		19		ar
35		18		31		1
36		19		32		1

