@<TRIPOS>MOLECULE
GSX-2011-BMC-4220-12t
 58 61 0 0 0
SMALL
MULLIKEN_CHARGES
****
Gaussian 16 #p B3LYP/6-31G* opt
@<TRIPOS>ATOM
1		C		-1.7939		1.5396		-0.4190		C.3		1		UNL1		-0.5671
2		C		-3.1306		0.8354		-0.3825		C.ar		1		UNL1		0.1541
3		C		-4.2653		1.5073		0.0659		C.ar		1		UNL1		-0.2113
4		C		-5.5033		0.8648		0.1126		C.ar		1		UNL1		-0.1257
5		S		-6.9345		1.7638		0.6920		S.O2		1		UNL1		1.1646
6		N		-7.4521		2.6141		-0.6899		N.3		1		UNL1		-0.8145
7		O		-6.4839		2.7925		1.6353		O.2		1		UNL1		-0.5450
8		O		-7.9624		0.7787		1.0456		O.2		1		UNL1		-0.5285
9		C		-5.6306		-0.4666		-0.2749		C.ar		1		UNL1		-0.1653
10		C		-4.5117		-1.1586		-0.7298		C.ar		1		UNL1		-0.1561
11		C		-3.2663		-0.5149		-0.7899		C.ar		1		UNL1		0.2980
12		N		-2.1100		-1.1741		-1.2467		N.am		1		UNL1		-0.7266
13		C		-1.9562		-2.4739		-1.6548		C.2		1		UNL1		0.5841
14		O		-2.8283		-3.3274		-1.7156		O.2		1		UNL1		-0.4949
15		C		-0.5290		-2.7954		-2.1258		C.3		1		UNL1		-0.1458
16		O		0.4652		-1.9079		-1.6307		O.3		1		UNL1		-0.5331
17		C		0.9704		-2.1313		-0.3693		C.ar		1		UNL1		0.3232
18		C		0.4781		-3.0634		0.5411		C.ar		1		UNL1		-0.1944
19		C		1.0756		-3.2183		1.7976		C.ar		1		UNL1		-0.1426
20		C		2.1621		-2.4219		2.1301		C.ar		1		UNL1		-0.0749
21		CL		2.9274		-2.6010		3.7032		Cl		1		UNL1		-0.0194
22		C		2.6638		-1.4668		1.2418		C.ar		1		UNL1		-0.1908
23		C		2.0675		-1.3185		-0.0073		C.ar		1		UNL1		0.3276
24		O		2.4625		-0.3975		-0.9445		O.3		1		UNL1		-0.5775
25		C		3.6531		0.3042		-0.7584		C.ar		1		UNL1		0.2644
26		C		3.6017		1.5676		-0.2233		C.ar		1		UNL1		-0.2396
27		C		4.7840		2.3438		-0.1005		C.ar		1		UNL1		0.1298
28		C		4.7821		3.6534		0.4487		C.ar		1		UNL1		-0.1895
29		C		5.9515		4.3731		0.5517		C.ar		1		UNL1		-0.1362
30		C		7.1761		3.8157		0.1088		C.ar		1		UNL1		-0.1348
31		C		7.2088		2.5486		-0.4291		C.ar		1		UNL1		-0.1946
32		C		6.0210		1.7788		-0.5487		C.ar		1		UNL1		0.1627
33		C		6.0177		0.4707		-1.1033		C.ar		1		UNL1		-0.2889
34		C		4.8672		-0.2817		-1.2211		C.ar		1		UNL1		0.1805
35		C		4.8656		-1.6609		-1.8292		C.3		1		UNL1		-0.5347
36		H		-1.8899		2.5635		-0.0486		H		1		UNL1		0.1767
37		H		-1.0451		1.0359		0.2074		H		1		UNL1		0.1746
38		H		-1.3850		1.6000		-1.4370		H		1		UNL1		0.1714
39		H		-4.1842		2.5373		0.3983		H		1		UNL1		0.1685
40		H		-8.2883		2.1737		-1.0700		H		1		UNL1		0.3516
41		H		-7.6478		3.5750		-0.4136		H		1		UNL1		0.3560
42		H		-6.5927		-0.9626		-0.2080		H		1		UNL1		0.1790
43		H		-4.5871		-2.1931		-1.0337		H		1		UNL1		0.1968
44		H		-1.2533		-0.6342		-1.2646		H		1		UNL1		0.3670
45		H		-0.3113		-3.8397		-1.8828		H		1		UNL1		0.1857
46		H		-0.4983		-2.6867		-3.2150		H		1		UNL1		0.1983
47		H		-0.3796		-3.6783		0.2924		H		1		UNL1		0.1669
48		H		0.6890		-3.9471		2.5006		H		1		UNL1		0.1606
49		H		3.5041		-0.8429		1.5202		H		1		UNL1		0.1773
50		H		2.6466		1.9724		0.0992		H		1		UNL1		0.1397
51		H		3.8407		4.0788		0.7883		H		1		UNL1		0.1333
52		H		5.9387		5.3739		0.9746		H		1		UNL1		0.1347
53		H		8.0917		4.3941		0.1957		H		1		UNL1		0.1342
54		H		8.1476		2.1187		-0.7701		H		1		UNL1		0.1335
55		H		6.9604		0.0549		-1.4528		H		1		UNL1		0.1320
56		H		4.1315		-1.7344		-2.6393		H		1		UNL1		0.1755
57		H		4.6012		-2.4275		-1.0904		H		1		UNL1		0.1710
58		H		5.8523		-1.9075		-2.2315		H		1		UNL1		0.1586
@<TRIPOS>BOND
1		46		15		1
2		56		35		1
3		58		35		1
4		15		45		1
5		15		13		1
6		15		16		1
7		35		34		1
8		35		57		1
9		14		13		2
10		13		12		1
11		16		17		1
12		55		33		1
13		38		1		1
14		44		12		1
15		12		11		1
16		34		33		ar
17		34		25		ar
18		33		32		ar
19		40		6		1
20		43		10		1
21		24		25		1
22		24		23		1
23		11		10		ar
24		11		2		ar
25		54		31		1
26		25		26		ar
27		10		9		ar
28		6		41		1
29		6		5		1
30		32		31		ar
31		32		27		ar
32		31		30		ar
33		1		2		1
34		1		36		1
35		1		37		1
36		2		3		ar
37		17		23		ar
38		17		18		ar
39		9		42		1
40		9		4		ar
41		26		27		ar
42		26		50		1
43		27		28		ar
44		23		22		ar
45		3		4		ar
46		3		39		1
47		30		53		1
48		30		29		ar
49		4		5		1
50		47		18		1
51		28		29		ar
52		28		51		1
53		18		19		ar
54		29		52		1
55		5		8		2
56		5		7		2
57		22		49		1
58		22		20		ar
59		19		20		ar
60		19		48		1
61		20		21		1

