@<TRIPOS>MOLECULE
GSX-2011-BMC-4220-12e
 55 58 0 0 0
SMALL
MULLIKEN_CHARGES
****
Gaussian 16 #p B3LYP/6-31G* opt
@<TRIPOS>ATOM
1		C		-2.0019		-1.6344		0.2461		C.3		1		UNL1		-0.5685
2		C		-3.3380		-0.9421		0.3860		C.ar		1		UNL1		0.1571
3		C		-4.5052		-1.5787		-0.0340		C.ar		1		UNL1		-0.2287
4		C		-5.7476		-0.9559		0.0955		C.ar		1		UNL1		-0.1425
5		S		-7.2227		-1.7962		-0.4887		S.O2		1		UNL1		1.1621
6		N		-7.4890		-1.2917		-2.0774		N.3		1		UNL1		-0.7852
7		O		-6.9057		-3.2209		-0.5827		O.2		1		UNL1		-0.5289
8		O		-8.3555		-1.2784		0.2763		O.2		1		UNL1		-0.5258
9		C		-5.8473		0.3145		0.6620		C.ar		1		UNL1		-0.1725
10		C		-4.6968		0.9721		1.0856		C.ar		1		UNL1		-0.1543
11		C		-3.4435		0.3537		0.9469		C.ar		1		UNL1		0.2968
12		N		-2.2560		0.9798		1.3680		N.am		1		UNL1		-0.7257
13		C		-2.0718		2.2458		1.8629		C.2		1		UNL1		0.5823
14		O		-2.9375		3.0876		2.0474		O.2		1		UNL1		-0.4939
15		C		-0.6147		2.5379		2.2528		C.3		1		UNL1		-0.1460
16		O		0.3412		1.6955		1.6193		O.3		1		UNL1		-0.5317
17		C		0.7800		2.0400		0.3621		C.ar		1		UNL1		0.3249
18		C		0.1899		2.9992		-0.4585		C.ar		1		UNL1		-0.1934
19		C		0.7143		3.2748		-1.7263		C.ar		1		UNL1		-0.1422
20		C		1.8332		2.5774		-2.1604		C.ar		1		UNL1		-0.0750
21		CL		2.5100		2.9123		-3.7479		Cl		1		UNL1		-0.0173
22		C		2.4413		1.6082		-1.3590		C.ar		1		UNL1		-0.1844
23		C		1.9104		1.3336		-0.1023		C.ar		1		UNL1		0.3258
24		O		2.4426		0.4181		0.7736		O.3		1		UNL1		-0.5604
25		C		3.3680		-0.5036		0.3288		C.ar		1		UNL1		0.3319
26		C		2.9632		-1.5314		-0.5573		C.ar		1		UNL1		-0.1511
27		C		3.8523		-2.5065		-0.9331		C.ar		1		UNL1		-0.1997
28		C		5.1840		-2.5097		-0.4392		C.ar		1		UNL1		0.1514
29		C		6.1123		-3.5154		-0.8170		C.ar		1		UNL1		-0.1946
30		C		7.3992		-3.5111		-0.3303		C.ar		1		UNL1		-0.1299
31		C		7.8126		-2.4936		0.5609		C.ar		1		UNL1		-0.1321
32		C		6.9400		-1.5017		0.9508		C.ar		1		UNL1		-0.1939
33		C		5.6057		-1.4781		0.4660		C.ar		1		UNL1		0.1275
34		C		4.6560		-0.4743		0.8268		C.ar		1		UNL1		-0.2061
35		CL		5.1083		0.8149		1.9222		Cl		1		UNL1		0.0202
36		H		-2.1252		-2.6173		-0.2158		H		1		UNL1		0.1781
37		H		-1.3058		-1.0619		-0.3824		H		1		UNL1		0.1688
38		H		-1.5143		-1.7933		1.2178		H		1		UNL1		0.1758
39		H		-4.4539		-2.5813		-0.4470		H		1		UNL1		0.1728
40		H		-7.6964		-0.2978		-2.1378		H		1		UNL1		0.3478
41		H		-6.7364		-1.5683		-2.7030		H		1		UNL1		0.3459
42		H		-6.8199		0.7773		0.7942		H		1		UNL1		0.1778
43		H		-4.7535		1.9560		1.5297		H		1		UNL1		0.1983
44		H		-1.4005		0.4448		1.2816		H		1		UNL1		0.3657
45		H		-0.4136		3.5979		2.0723		H		1		UNL1		0.1885
46		H		-0.5046		2.3475		3.3254		H		1		UNL1		0.2027
47		H		-0.6910		3.5387		-0.1287		H		1		UNL1		0.1676
48		H		0.2487		4.0206		-2.3602		H		1		UNL1		0.1610
49		H		3.3217		1.0817		-1.7064		H		1		UNL1		0.1784
50		H		1.9400		-1.5282		-0.9193		H		1		UNL1		0.1486
51		H		3.5415		-3.2966		-1.6112		H		1		UNL1		0.1456
52		H		5.7832		-4.2927		-1.5022		H		1		UNL1		0.1387
53		H		8.0992		-4.2866		-0.6278		H		1		UNL1		0.1399
54		H		8.8297		-2.4943		0.9426		H		1		UNL1		0.1413
55		H		7.2659		-0.7261		1.6340		H		1		UNL1		0.1607
@<TRIPOS>BOND
1		21		20		1
2		41		6		1
3		48		19		1
4		20		19		ar
5		20		22		ar
6		40		6		1
7		6		5		1
8		19		18		ar
9		49		22		1
10		51		27		1
11		52		29		1
12		22		23		ar
13		27		26		ar
14		27		28		ar
15		50		26		1
16		29		28		ar
17		29		30		ar
18		53		30		1
19		7		5		2
20		26		25		ar
21		5		4		1
22		5		8		2
23		18		47		1
24		18		17		ar
25		39		3		1
26		28		33		ar
27		37		1		1
28		30		31		ar
29		36		1		1
30		23		17		ar
31		23		24		1
32		3		4		ar
33		3		2		ar
34		4		9		ar
35		1		2		1
36		1		38		1
37		25		24		1
38		25		34		ar
39		17		16		1
40		2		11		ar
41		33		34		ar
42		33		32		ar
43		31		54		1
44		31		32		ar
45		9		42		1
46		9		10		ar
47		34		35		1
48		11		10		ar
49		11		12		1
50		32		55		1
51		10		43		1
52		44		12		1
53		12		13		1
54		16		15		1
55		13		14		2
56		13		15		1
57		45		15		1
58		15		46		1

