@<TRIPOS>MOLECULE
GSX-2011-BMC-5117-10e
 40 42 0 0 0
SMALL
MULLIKEN_CHARGES
****
Gaussian 16 #p B3LYP/6-31G* opt
@<TRIPOS>ATOM
1		C		6.7219		0.6677		1.5304		C.3		1		UNL1		-0.5277
2		C		5.4468		0.9718		0.7775		C.ar		1		UNL1		0.1755
3		C		4.9626		2.2804		0.6777		C.ar		1		UNL1		-0.1762
4		C		3.8017		2.5564		-0.0477		C.ar		1		UNL1		-0.1305
5		C		3.1080		1.5280		-0.6805		C.ar		1		UNL1		-0.1716
6		C		3.5751		0.2110		-0.5861		C.ar		1		UNL1		0.1220
7		C		2.7967		-0.9116		-1.2636		C.3		1		UNL1		0.0200
8		O		3.6109		-2.0768		-1.2966		O.3		1		UNL1		-0.6290
9		C		1.4831		-1.1746		-0.5289		C.ar		1		UNL1		0.3040
10		C		1.4047		-2.0933		0.5262		C.ar		1		UNL1		-0.2004
11		C		0.1613		-2.2301		1.1282		C.ar		1		UNL1		0.0735
12		N		-0.9219		-1.5410		0.7473		N.ar		1		UNL1		-0.4773
13		C		-0.7344		-0.6911		-0.2707		C.ar		1		UNL1		0.6931
14		N		-1.7825		0.0690		-0.7464		N.pl3		1		UNL1		-0.7654
15		C		-3.1229		0.1665		-0.3718		C.ar		1		UNL1		0.3828
16		C		-3.7131		-0.5717		0.6710		C.ar		1		UNL1		-0.1599
17		C		-5.0604		-0.3987		0.9624		C.ar		1		UNL1		-0.1532
18		C		-5.8534		0.5033		0.2341		C.ar		1		UNL1		0.1311
19		C		-7.2400		0.6710		0.5447		C.1		1		UNL1		0.2273
20		N		-8.3684		0.8082		0.7961		N.1		1		UNL1		-0.4848
21		C		-5.2616		1.2402		-0.8072		C.ar		1		UNL1		-0.1404
22		C		-3.9191		1.0723		-1.1025		C.ar		1		UNL1		-0.2057
23		N		0.4214		-0.4792		-0.9362		N.ar		1		UNL1		-0.5505
24		C		4.7361		-0.0564		0.1419		C.ar		1		UNL1		-0.2241
25		H		6.9503		1.4483		2.2636		H		1		UNL1		0.1552
26		H		6.6560		-0.2879		2.0622		H		1		UNL1		0.1583
27		H		7.5796		0.5985		0.8480		H		1		UNL1		0.1670
28		H		5.4982		3.0898		1.1687		H		1		UNL1		0.1222
29		H		3.4377		3.5780		-0.1190		H		1		UNL1		0.1290
30		H		2.2002		1.7393		-1.2388		H		1		UNL1		0.1345
31		H		2.5317		-0.5887		-2.2807		H		1		UNL1		0.1514
32		H		3.1219		-2.7637		-1.7756		H		1		UNL1		0.4003
33		H		2.2717		-2.6569		0.8470		H		1		UNL1		0.1602
34		H		0.0135		-2.9215		1.9562		H		1		UNL1		0.1558
35		H		-1.4919		0.6618		-1.5135		H		1		UNL1		0.3453
36		H		-3.1095		-1.2673		1.2358		H		1		UNL1		0.1893
37		H		-5.5091		-0.9712		1.7681		H		1		UNL1		0.1582
38		H		-5.8605		1.9414		-1.3793		H		1		UNL1		0.1579
39		H		-3.4726		1.6478		-1.9101		H		1		UNL1		0.1363
40		H		5.0971		-1.0779		0.2028		H		1		UNL1		0.1465
@<TRIPOS>BOND
1		31		7		1
2		39		22		1
3		32		8		1
4		35		14		1
5		38		21		1
6		8		7		1
7		7		6		1
8		7		9		1
9		30		5		1
10		22		21		ar
11		22		15		ar
12		23		9		ar
13		23		13		ar
14		21		18		ar
15		14		15		1
16		14		13		1
17		5		6		ar
18		5		4		ar
19		6		24		ar
20		9		10		ar
21		15		16		ar
22		13		12		ar
23		29		4		1
24		4		3		ar
25		24		40		1
26		24		2		ar
27		18		19		1
28		18		17		ar
29		10		33		1
30		10		11		ar
31		19		20		3
32		16		17		ar
33		16		36		1
34		3		2		ar
35		3		28		1
36		12		11		ar
37		2		1		1
38		27		1		1
39		17		37		1
40		11		34		1
41		1		26		1
42		1		25		1

