@<TRIPOS>MOLECULE
GSX-2011-BMC-4220-12d
 55 58 0 0 0
SMALL
MULLIKEN_CHARGES
****
Gaussian 16 #p B3LYP/6-31G* opt
@<TRIPOS>ATOM
1		C		-2.2638		-1.5106		-0.4180		C.3		1		UNL1		-0.5677
2		C		-3.7374		-1.1762		-0.4412		C.ar		1		UNL1		0.1543
3		C		-4.6715		-2.0919		0.0375		C.ar		1		UNL1		-0.2110
4		C		-6.0350		-1.7957		0.0193		C.ar		1		UNL1		-0.1256
5		S		-7.2001		-2.9974		0.6457		S.O2		1		UNL1		1.1651
6		N		-7.1807		-2.7254		2.3264		N.3		1		UNL1		-0.8146
7		O		-8.5254		-2.6380		0.1298		O.2		1		UNL1		-0.5279
8		O		-6.6279		-4.3350		0.4609		O.2		1		UNL1		-0.5447
9		C		-6.4945		-0.5841		-0.4903		C.ar		1		UNL1		-0.1651
10		C		-5.5804		0.3477		-0.9740		C.ar		1		UNL1		-0.1558
11		C		-4.2072		0.0607		-0.9482		C.ar		1		UNL1		0.2977
12		N		-3.2482		0.9716		-1.4296		N.am		1		UNL1		-0.7255
13		C		-3.4255		2.2419		-1.9143		C.2		1		UNL1		0.5838
14		O		-4.4875		2.8335		-2.0362		O.2		1		UNL1		-0.4943
15		C		-2.1189		2.8994		-2.3852		C.3		1		UNL1		-0.1468
16		O		-0.9419		2.3465		-1.8071		O.3		1		UNL1		-0.5319
17		C		-0.5494		2.8023		-0.5702		C.ar		1		UNL1		0.3227
18		C		-1.3263		3.5910		0.2771		C.ar		1		UNL1		-0.1928
19		C		-0.8325		4.0049		1.5188		C.ar		1		UNL1		-0.1421
20		C		0.4463		3.6210		1.9005		C.ar		1		UNL1		-0.0736
21		CL		1.0875		4.1392		3.4531		Cl		1		UNL1		-0.0168
22		C		1.2431		2.8291		1.0712		C.ar		1		UNL1		-0.1857
23		C		0.7424		2.4096		-0.1587		C.ar		1		UNL1		0.3185
24		O		1.4620		1.6639		-1.0595		O.3		1		UNL1		-0.5694
25		C		2.5092		0.8658		-0.6271		C.ar		1		UNL1		0.3387
26		C		2.3030		-0.1233		0.3681		C.ar		1		UNL1		-0.1619
27		C		3.3343		-0.9639		0.7135		C.ar		1		UNL1		-0.1971
28		C		4.6053		-0.8649		0.0838		C.ar		1		UNL1		0.1427
29		C		5.6812		-1.7257		0.4259		C.ar		1		UNL1		-0.2193
30		C		6.8909		-1.5946		-0.2124		C.ar		1		UNL1		0.0786
31		BR		8.3403		-2.7534		0.2476		Br		1		UNL1		-0.1242
32		C		7.0982		-0.6160		-1.2120		C.ar		1		UNL1		-0.1513
33		C		6.0671		0.2269		-1.5575		C.ar		1		UNL1		-0.1901
34		C		4.7975		0.1319		-0.9271		C.ar		1		UNL1		0.1388
35		C		3.7220		0.9954		-1.2616		C.ar		1		UNL1		-0.2483
36		H		-1.6889		-0.7939		0.1846		H		1		UNL1		0.1684
37		H		-2.1018		-2.5013		0.0144		H		1		UNL1		0.1783
38		H		-1.8249		-1.5218		-1.4251		H		1		UNL1		0.1738
39		H		-4.3376		-3.0526		0.4163		H		1		UNL1		0.1689
40		H		-7.1170		-3.6295		2.7917		H		1		UNL1		0.3565
41		H		-8.0307		-2.2382		2.6052		H		1		UNL1		0.3520
42		H		-7.5586		-0.3772		-0.5238		H		1		UNL1		0.1798
43		H		-5.9153		1.2937		-1.3755		H		1		UNL1		0.1971
44		H		-2.2807		0.6740		-1.4013		H		1		UNL1		0.3645
45		H		-2.1940		3.9775		-2.2157		H		1		UNL1		0.1875
46		H		-2.0204		2.7292		-3.4624		H		1		UNL1		0.2005
47		H		-2.3304		3.8833		-0.0092		H		1		UNL1		0.1694
48		H		-1.4443		4.6135		2.1747		H		1		UNL1		0.1623
49		H		2.2442		2.5480		1.3749		H		1		UNL1		0.1776
50		H		1.3311		-0.2083		0.8435		H		1		UNL1		0.1496
51		H		3.1826		-1.7258		1.4737		H		1		UNL1		0.1463
52		H		5.5404		-2.4829		1.1905		H		1		UNL1		0.1563
53		H		8.0660		-0.5402		-1.6953		H		1		UNL1		0.1584
54		H		6.2194		0.9813		-2.3250		H		1		UNL1		0.1457
55		H		3.8462		1.7567		-2.0256		H		1		UNL1		0.1495
@<TRIPOS>BOND
1		46		15		1
2		15		45		1
3		15		13		1
4		15		16		1
5		54		33		1
6		14		13		2
7		55		35		1
8		13		12		1
9		16		17		1
10		53		32		1
11		33		32		ar
12		33		34		ar
13		12		44		1
14		12		11		1
15		38		1		1
16		43		10		1
17		35		34		ar
18		35		25		ar
19		32		30		ar
20		24		25		1
21		24		23		1
22		10		11		ar
23		10		9		ar
24		11		2		ar
25		34		28		ar
26		25		26		ar
27		17		23		ar
28		17		18		ar
29		42		9		1
30		9		4		ar
31		2		1		1
32		2		3		ar
33		1		37		1
34		1		36		1
35		30		31		1
36		30		29		ar
37		23		22		ar
38		47		18		1
39		4		3		ar
40		4		5		1
41		3		39		1
42		28		29		ar
43		28		27		ar
44		7		5		2
45		18		19		ar
46		26		27		ar
47		26		50		1
48		29		52		1
49		8		5		2
50		5		6		1
51		27		51		1
52		22		49		1
53		22		20		ar
54		19		20		ar
55		19		48		1
56		20		21		1
57		6		41		1
58		6		40		1

