@<TRIPOS>MOLECULE
GSX-2019-EJMC277-5-15b4
 55 57 0 0 0
SMALL
MULLIKEN_CHARGES

@<TRIPOS>ATOM
1		C		-3.7611		4.3969		0.2778		C.3		1		UNL1		-0.5343
2		C		-1.7811		3.1796		1.2834		C.ar		1		UNL1		-0.2762
3		C		-0.6083		2.4227		1.1907		C.ar		1		UNL1		0.1929
4		C		-0.2009		2.0296		-0.0867		C.ar		1		UNL1		0.2000
5		C		-0.8902		2.3747		-1.2519		C.ar		1		UNL1		0.1909
6		C		-2.0570		3.1322		-1.1032		C.ar		1		UNL1		-0.2778
7		C		-2.5189		3.5446		0.1519		C.ar		1		UNL1		0.2098
8		C		1.0618		0.0148		-0.1899		C.ar		1		UNL1		0.5546
9		C		2.3210		-0.6427		-0.2576		C.ar		1		UNL1		0.0027
10		C		2.2269		-2.0428		-0.2736		C.ar		1		UNL1		0.0141
11		N		1.0927		-2.7323		-0.2179		N.ar		1		UNL1		-0.5016
12		C		-0.0286		-1.9827		-0.1441		C.ar		1		UNL1		0.6994
13		N		-0.0896		-0.6465		-0.1329		N.ar		1		UNL1		-0.5532
14		C		-4.3670		-0.7957		0.1190		C.ar		1		UNL1		-0.1592
15		C		-3.0010		-1.0392		0.0440		C.ar		1		UNL1		-0.1632
16		C		-2.5316		-2.3643		-0.0030		C.ar		1		UNL1		0.3749
17		C		-3.4608		-3.4231		0.0291		C.ar		1		UNL1		-0.2028
18		C		-4.8212		-3.1736		0.1047		C.ar		1		UNL1		-0.1407
19		C		-5.2938		-1.8502		0.1504		C.ar		1		UNL1		0.1340
20		O		1.0296		1.3515		-0.2056		O.3		1		UNL1		-0.5251
21		N		-1.1812		-2.7225		-0.0799		N.pl3		1		UNL1		-0.7618
22		C		-6.6979		-1.5834		0.2279		C.1		1		UNL1		0.2296
23		N		-7.8399		-1.3668		0.2908		N.1		1		UNL1		-0.4821
24		C		3.6255		0.0643		-0.2688		C.2		1		UNL1		0.3855
25		C		0.1899		2.0366		2.4110		C.3		1		UNL1		-0.5411
26		C		-0.3925		1.9405		-2.6079		C.3		1		UNL1		-0.5387
27		C		4.8885		-0.7640		-0.5398		C.3		1		UNL1		-0.2011
28		O		3.7301		1.2601		-0.0391		O.2		1		UNL1		-0.4618
29		N		6.0008		0.1172		-0.8386		N.3		1		UNL1		-0.5455
30		C		7.3206		-0.4517		-0.5740		C.3		1		UNL1		-0.2808
31		C		7.5673		-0.8730		0.8203		C.1		1		UNL1		0.3099
32		C		7.7230		-1.2036		1.9726		C.1		1		UNL1		-0.4763
33		H		-4.4757		4.1862		-0.5249		H		1		UNL1		0.1595
34		H		-3.5166		5.4660		0.2221		H		1		UNL1		0.1695
35		H		-4.2677		4.2301		1.2342		H		1		UNL1		0.1596
36		H		-2.1205		3.4967		2.2673		H		1		UNL1		0.1220
37		H		-2.6135		3.4117		-1.9954		H		1		UNL1		0.1221
38		H		3.1301		-2.6465		-0.3220		H		1		UNL1		0.1667
39		H		-4.7207		0.2297		0.1539		H		1		UNL1		0.1632
40		H		-2.3011		-0.2169		0.0216		H		1		UNL1		0.2107
41		H		-3.1061		-4.4506		-0.0065		H		1		UNL1		0.1405
42		H		-5.5251		-3.9991		0.1284		H		1		UNL1		0.1606
43		H		-0.9843		-3.7157		-0.1010		H		1		UNL1		0.3524
44		H		1.2558		2.2441		2.2694		H		1		UNL1		0.1874
45		H		0.0953		0.9641		2.6257		H		1		UNL1		0.1645
46		H		-0.1583		2.5835		3.2919		H		1		UNL1		0.1575
47		H		-0.4700		0.8530		-2.7308		H		1		UNL1		0.1666
48		H		0.6602		2.2081		-2.7506		H		1		UNL1		0.1787
49		H		-0.9776		2.4093		-3.4043		H		1		UNL1		0.1582
50		H		4.7180		-1.4528		-1.3787		H		1		UNL1		0.1582
51		H		5.0615		-1.3928		0.3563		H		1		UNL1		0.1582
52		H		5.8628		0.9849		-0.3232		H		1		UNL1		0.3276
53		H		8.0699		0.2939		-0.8664		H		1		UNL1		0.1801
54		H		7.4704		-1.3116		-1.2410		H		1		UNL1		0.1722
55		H		7.8787		-1.4884		2.9886		H		1		UNL1		0.1887
@<TRIPOS>BOND
1		49		26		1
2		48		26		1
3		47		26		1
4		26		5		1
5		37		6		1
6		50		27		1
7		5		6		ar
8		5		4		ar
9		54		30		1
10		6		7		ar
11		53		30		1
12		29		30		1
13		29		27		1
14		29		52		1
15		30		31		1
16		27		24		1
17		27		51		1
18		33		1		1
19		38		10		1
20		10		9		ar
21		10		11		ar
22		24		9		1
23		24		28		2
24		9		8		ar
25		11		12		ar
26		20		8		1
27		20		4		1
28		8		13		ar
29		12		13		ar
30		12		21		1
31		43		21		1
32		4		3		ar
33		21		16		1
34		41		17		1
35		16		17		ar
36		16		15		ar
37		40		15		1
38		17		18		ar
39		15		14		ar
40		18		42		1
41		18		19		ar
42		14		19		ar
43		14		39		1
44		19		22		1
45		7		1		1
46		7		2		ar
47		34		1		1
48		22		23		3
49		1		35		1
50		31		32		3
51		3		2		ar
52		3		25		1
53		2		36		1
54		32		55		1
55		44		25		1
56		25		45		1
57		25		46		1

