@<TRIPOS>MOLECULE
GSX-2011-BMC-4220-12j
 55 58 0 0 0
SMALL
MULLIKEN_CHARGES
****
Gaussian 16 #p B3LYP/6-31G* opt
@<TRIPOS>ATOM
1		C		2.8736		0.8303		-2.0614		C.3		1		UNL1		-0.5651
2		C		3.6612		0.2751		-0.8971		C.ar		1		UNL1		0.1550
3		C		5.0508		0.1865		-0.9685		C.ar		1		UNL1		-0.2293
4		C		5.7933		-0.3112		0.1037		C.ar		1		UNL1		-0.1431
5		S		7.5778		-0.4394		-0.0408		S.O2		1		UNL1		1.1613
6		N		7.9228		-1.9938		-0.6033		N.3		1		UNL1		-0.7852
7		O		7.9965		0.4621		-1.1138		O.2		1		UNL1		-0.5292
8		O		8.1340		-0.3853		1.3100		O.2		1		UNL1		-0.5264
9		C		5.1581		-0.7188		1.2764		C.ar		1		UNL1		-0.1731
10		C		3.7720		-0.6451		1.3706		C.ar		1		UNL1		-0.1551
11		C		3.0199		-0.1556		0.2900		C.ar		1		UNL1		0.2959
12		N		1.6182		-0.0591		0.3440		N.am		1		UNL1		-0.7353
13		C		0.7609		-0.4243		1.3520		C.2		1		UNL1		0.5805
14		O		1.0709		-0.9119		2.4282		O.2		1		UNL1		-0.4925
15		C		-0.7172		-0.2045		1.0149		C.3		1		UNL1		-0.1383
16		O		-0.9242		0.4920		-0.2219		O.3		1		UNL1		-0.5594
17		C		-1.3660		1.8010		-0.1483		C.ar		1		UNL1		0.3247
18		C		-0.6594		2.7809		0.5529		C.ar		1		UNL1		-0.1853
19		C		-1.0872		4.1075		0.5698		C.ar		1		UNL1		-0.2066
20		C		-2.2360		4.4336		-0.1408		C.ar		1		UNL1		0.3929
21		F		-2.6648		5.7113		-0.1474		F		1		UNL1		-0.2948
22		C		-2.9651		3.4847		-0.8428		C.ar		1		UNL1		-0.2688
23		C		-2.5383		2.1561		-0.8379		C.ar		1		UNL1		0.3513
24		O		-3.2843		1.2968		-1.6118		O.3		1		UNL1		-0.5881
25		C		-3.4144		-0.0589		-1.3925		C.ar		1		UNL1		0.3538
26		C		-3.1417		-0.8735		-2.5182		C.ar		1		UNL1		-0.1696
27		C		-3.3341		-2.2294		-2.4606		C.ar		1		UNL1		-0.1973
28		C		-3.8023		-2.8503		-1.2727		C.ar		1		UNL1		0.1458
29		C		-3.9939		-4.2547		-1.1944		C.ar		1		UNL1		-0.1949
30		C		-4.4481		-4.8462		-0.0382		C.ar		1		UNL1		-0.1314
31		C		-4.7309		-4.0481		1.0942		C.ar		1		UNL1		-0.1308
32		C		-4.5590		-2.6821		1.0549		C.ar		1		UNL1		-0.1934
33		C		-4.0924		-2.0395		-0.1234		C.ar		1		UNL1		0.0901
34		C		-3.8988		-0.6283		-0.2309		C.ar		1		UNL1		-0.0311
35		BR		-4.3101		0.4951		1.2572		Br		1		UNL1		-0.1054
36		H		2.1661		0.0958		-2.4704		H		1		UNL1		0.1689
37		H		2.2956		1.7214		-1.7812		H		1		UNL1		0.1739
38		H		3.5433		1.1227		-2.8741		H		1		UNL1		0.1781
39		H		5.5678		0.5313		-1.8587		H		1		UNL1		0.1723
40		H		7.6444		-2.7139		0.0589		H		1		UNL1		0.3473
41		H		7.5473		-2.1597		-1.5338		H		1		UNL1		0.3454
42		H		5.7442		-1.0699		2.1195		H		1		UNL1		0.1772
43		H		3.2603		-0.9533		2.2716		H		1		UNL1		0.1992
44		H		1.1455		0.3003		-0.4768		H		1		UNL1		0.3689
45		H		-1.1893		-1.1879		0.9165		H		1		UNL1		0.2011
46		H		-1.1969		0.3171		1.8472		H		1		UNL1		0.1962
47		H		0.2466		2.4990		1.0808		H		1		UNL1		0.1551
48		H		-0.5428		4.8746		1.1087		H		1		UNL1		0.1568
49		H		-3.8672		3.7591		-1.3768		H		1		UNL1		0.1673
50		H		-2.7816		-0.3843		-3.4172		H		1		UNL1		0.1525
51		H		-3.1232		-2.8481		-3.3287		H		1		UNL1		0.1434
52		H		-3.7720		-4.8560		-2.0727		H		1		UNL1		0.1374
53		H		-4.5894		-5.9221		0.0081		H		1		UNL1		0.1387
54		H		-5.0876		-4.5167		2.0071		H		1		UNL1		0.1407
55		H		-4.7782		-2.0791		1.9283		H		1		UNL1		0.1579
@<TRIPOS>BOND
1		50		26		1
2		51		27		1
3		38		1		1
4		26		27		ar
5		26		25		ar
6		36		1		1
7		27		28		ar
8		52		29		1
9		1		37		1
10		1		2		1
11		39		3		1
12		24		25		1
13		24		23		1
14		41		6		1
15		25		34		ar
16		49		22		1
17		28		29		ar
18		28		33		ar
19		29		30		ar
20		7		5		2
21		3		2		ar
22		3		4		ar
23		2		11		ar
24		22		23		ar
25		22		20		ar
26		23		17		ar
27		6		5		1
28		6		40		1
29		44		12		1
30		34		33		ar
31		34		35		1
32		16		17		1
33		16		15		1
34		17		18		ar
35		21		20		1
36		20		19		ar
37		33		32		ar
38		5		4		1
39		5		8		2
40		30		53		1
41		30		31		ar
42		4		9		ar
43		11		12		1
44		11		10		ar
45		12		13		1
46		18		19		ar
47		18		47		1
48		19		48		1
49		45		15		1
50		15		13		1
51		15		46		1
52		32		31		ar
53		32		55		1
54		31		54		1
55		9		10		ar
56		9		42		1
57		13		14		2
58		10		43		1

