@<TRIPOS>MOLECULE
GSX-2011-BMC-7093-1f
 40 42 0 0 0
SMALL
MULLIKEN_CHARGES
****
Gaussian 16 #p B3LYP/6-31G* opt
@<TRIPOS>ATOM
1		C		-0.5025		3.5351		-0.0062		C.3		1		UNL1		-0.5137
2		C		-0.6984		2.0460		-0.1126		C.ar		1		UNL1		0.3398
3		C		-1.9670		1.4838		-0.2215		C.ar		1		UNL1		-0.2693
4		C		-2.0281		0.0794		-0.3184		C.ar		1		UNL1		0.5609
5		O		-3.1608		-0.6342		-0.4501		O.3		1		UNL1		-0.4983
6		C		-4.4477		0.0300		-0.4963		C.3		1		UNL1		0.1151
7		C		-4.9286		0.3812		0.9219		C.3		1		UNL1		-0.2881
8		C		-5.5161		-0.9415		1.4392		C.3		1		UNL1		-0.2718
9		C		-6.2782		-1.4907		0.2171		C.3		1		UNL1		-0.2755
10		C		-5.4575		-1.0201		-1.0160		C.3		1		UNL1		-0.2937
11		N		-0.9330		-0.6733		-0.2976		N.ar		1		UNL1		-0.5534
12		C		0.2374		-0.0221		-0.1856		C.ar		1		UNL1		0.6951
13		N		1.3253		-0.8750		-0.1709		N.pl3		1		UNL1		-0.7697
14		C		2.6969		-0.6520		-0.0724		C.ar		1		UNL1		0.3837
15		C		3.2912		0.6192		0.0421		C.ar		1		UNL1		-0.1599
16		C		4.6726		0.7306		0.1344		C.ar		1		UNL1		-0.1541
17		C		5.4988		-0.4055		0.1162		C.ar		1		UNL1		0.1300
18		C		6.9201		-0.2754		0.2124		C.1		1		UNL1		0.2256
19		N		8.0771		-0.1703		0.2907		N.1		1		UNL1		-0.4877
20		C		4.9037		-1.6747		0.0017		C.ar		1		UNL1		-0.1410
21		C		3.5272		-1.7924		-0.0908		C.ar		1		UNL1		-0.2061
22		N		0.4204		1.2995		-0.0938		N.ar		1		UNL1		-0.5433
23		H		-1.4537		4.0742		-0.0228		H		1		UNL1		0.1546
24		H		0.1202		3.8922		-0.8341		H		1		UNL1		0.1796
25		H		0.0267		3.7798		0.9215		H		1		UNL1		0.1793
26		H		-2.8485		2.1097		-0.2217		H		1		UNL1		0.1430
27		H		-4.3680		0.8956		-1.1618		H		1		UNL1		0.1419
28		H		-4.1313		0.7919		1.5488		H		1		UNL1		0.1548
29		H		-5.7186		1.1413		0.8467		H		1		UNL1		0.1394
30		H		-4.7001		-1.6195		1.7155		H		1		UNL1		0.1573
31		H		-6.1532		-0.8112		2.3199		H		1		UNL1		0.1417
32		H		-7.2861		-1.0592		0.1847		H		1		UNL1		0.1391
33		H		-6.3969		-2.5780		0.2478		H		1		UNL1		0.1469
34		H		-6.1010		-0.5851		-1.7874		H		1		UNL1		0.1461
35		H		-4.9011		-1.8378		-1.4821		H		1		UNL1		0.1730
36		H		1.0358		-1.8417		-0.2485		H		1		UNL1		0.3470
37		H		2.6608		1.4964		0.0565		H		1		UNL1		0.1849
38		H		5.1233		1.7143		0.2224		H		1		UNL1		0.1549
39		H		5.5274		-2.5627		-0.0139		H		1		UNL1		0.1558
40		H		3.0789		-2.7794		-0.1789		H		1		UNL1		0.1360
@<TRIPOS>BOND
1		34		10		1
2		35		10		1
3		27		6		1
4		10		6		1
5		10		9		1
6		24		1		1
7		6		5		1
8		6		7		1
9		5		4		1
10		4		11		ar
11		4		3		ar
12		11		12		ar
13		36		13		1
14		26		3		1
15		3		2		ar
16		12		13		1
17		12		22		ar
18		40		21		1
19		13		14		1
20		2		22		ar
21		2		1		1
22		21		14		ar
23		21		20		ar
24		14		15		ar
25		23		1		1
26		39		20		1
27		1		25		1
28		20		17		ar
29		15		37		1
30		15		16		ar
31		17		16		ar
32		17		18		1
33		16		38		1
34		32		9		1
35		18		19		3
36		9		33		1
37		9		8		1
38		29		7		1
39		7		8		1
40		7		28		1
41		8		30		1
42		8		31		1

