@<TRIPOS>MOLECULE
GSX-2011-BMC-7093-1d
 40 42 0 0 0
SMALL
MULLIKEN_CHARGES

@<TRIPOS>ATOM
1		C		-3.0397		3.1580		0.1456		C.3		1		UNL1		-0.5197
2		C		-1.8802		2.2071		0.0507		C.ar		1		UNL1		0.0802
3		C		-0.5572		2.5886		0.1867		C.ar		1		UNL1		0.0119
4		N		0.4958		1.7534		0.1040		N.ar		1		UNL1		-0.4921
5		C		0.1909		0.4783		-0.1268		C.ar		1		UNL1		0.6954
6		N		1.1857		-0.4767		-0.2321		N.pl3		1		UNL1		-0.7679
7		C		2.5730		-0.3995		-0.1301		C.ar		1		UNL1		0.3838
8		C		3.2894		-1.6045		-0.2869		C.ar		1		UNL1		-0.2067
9		C		4.6710		-1.6295		-0.2001		C.ar		1		UNL1		-0.1408
10		C		5.3854		-0.4436		0.0475		C.ar		1		UNL1		0.1300
11		C		6.8129		-0.4620		0.1393		C.1		1		UNL1		0.2258
12		N		7.9747		-0.4790		0.2140		N.1		1		UNL1		-0.4872
13		C		4.6724		0.7569		0.2027		C.ar		1		UNL1		-0.1540
14		C		3.2864		0.7890		0.1166		C.ar		1		UNL1		-0.1601
15		N		-1.0501		-0.0354		-0.2786		N.ar		1		UNL1		-0.5846
16		C		-2.0577		0.8211		-0.1913		C.ar		1		UNL1		0.5497
17		O		-3.3211		0.3946		-0.3394		O.3		1		UNL1		-0.5181
18		C		-3.5683		-1.0181		-0.5951		C.3		1		UNL1		0.1267
19		C		-5.0211		-1.1062		-1.0699		C.3		1		UNL1		-0.2838
20		C		-5.8318		-1.1119		0.2358		C.3		1		UNL1		-0.2712
21		C		-5.0038		-2.0280		1.1617		C.3		1		UNL1		-0.2784
22		C		-3.5240		-1.8323		0.7214		C.3		1		UNL1		-0.2826
23		H		-3.7242		2.8773		0.9549		H		1		UNL1		0.1686
24		H		-3.6299		3.1648		-0.7785		H		1		UNL1		0.1698
25		H		-2.6883		4.1774		0.3341		H		1		UNL1		0.1555
26		H		-0.3132		3.6335		0.3753		H		1		UNL1		0.1445
27		H		0.8039		-1.3969		-0.4076		H		1		UNL1		0.3421
28		H		2.7483		-2.5285		-0.4782		H		1		UNL1		0.1330
29		H		5.2066		-2.5654		-0.3228		H		1		UNL1		0.1556
30		H		5.2156		1.6772		0.3936		H		1		UNL1		0.1565
31		H		2.7433		1.7152		0.2369		H		1		UNL1		0.1901
32		H		-2.8370		-1.3562		-1.3312		H		1		UNL1		0.1552
33		H		-5.1551		-2.0572		-1.6024		H		1		UNL1		0.1416
34		H		-5.2765		-0.2957		-1.7590		H		1		UNL1		0.1533
35		H		-6.8619		-1.4580		0.1018		H		1		UNL1		0.1402
36		H		-5.8739		-0.0947		0.6427		H		1		UNL1		0.1501
37		H		-5.1569		-1.8010		2.2214		H		1		UNL1		0.1432
38		H		-5.3034		-3.0725		1.0138		H		1		UNL1		0.1400
39		H		-3.0242		-2.7920		0.5529		H		1		UNL1		0.1442
40		H		-2.9321		-1.2989		1.4695		H		1		UNL1		0.1602
@<TRIPOS>BOND
1		34		19		1
2		33		19		1
3		32		18		1
4		19		18		1
5		19		20		1
6		24		1		1
7		18		17		1
8		18		22		1
9		28		8		1
10		27		6		1
11		17		16		1
12		29		9		1
13		8		9		ar
14		8		7		ar
15		15		16		ar
16		15		5		ar
17		6		7		1
18		6		5		1
19		9		10		ar
20		16		2		ar
21		7		14		ar
22		5		4		ar
23		10		11		1
24		10		13		ar
25		2		1		1
26		2		3		ar
27		35		20		1
28		4		3		ar
29		14		13		ar
30		14		31		1
31		11		12		3
32		1		25		1
33		1		23		1
34		3		26		1
35		13		30		1
36		20		36		1
37		20		21		1
38		39		22		1
39		22		21		1
40		22		40		1
41		38		21		1
42		21		37		1

