@<TRIPOS>MOLECULE
GSX-2011-BMC-7093-1i
 32 34 0 0 0
SMALL
MULLIKEN_CHARGES

@<TRIPOS>ATOM
1		N		7.1421		-0.3644		0.0865		N.1		1		UNL1		-0.4884
2		C		5.9781		-0.3573		0.0549		C.1		1		UNL1		0.2252
3		C		4.5482		-0.3510		0.0158		C.ar		1		UNL1		0.1296
4		C		3.8321		-1.5561		-0.0991		C.ar		1		UNL1		-0.1411
5		C		2.4481		-1.5425		-0.1367		C.ar		1		UNL1		-0.2064
6		C		1.7302		-0.3303		-0.0611		C.ar		1		UNL1		0.3840
7		N		0.3413		-0.4209		-0.1081		N.pl3		1		UNL1		-0.7689
8		C		-0.6595		0.5327		-0.0545		C.ar		1		UNL1		0.7001
9		N		-0.3454		1.8255		0.0680		N.ar		1		UNL1		-0.4991
10		C		-1.4016		2.6594		0.1097		C.ar		1		UNL1		0.0673
11		C		-2.7136		2.2437		0.0372		C.ar		1		UNL1		-0.2241
12		C		-2.9206		0.8465		-0.0904		C.ar		1		UNL1		0.5732
13		N		-4.1861		0.3298		-0.1496		N.pl3		1		UNL1		-0.6634
14		C		-4.4626		-1.0466		-0.4491		C.3		1		UNL1		0.0610
15		C		-5.7558		-1.6175		0.0711		C.3		1		UNL1		-0.3431
16		C		-4.4415		-2.0595		0.6663		C.3		1		UNL1		-0.2882
17		N		-1.8919		-0.0053		-0.1425		N.ar		1		UNL1		-0.5878
18		C		2.4456		0.8771		0.0545		C.ar		1		UNL1		-0.1596
19		C		3.8339		0.8565		0.0913		C.ar		1		UNL1		-0.1543
20		H		4.3684		-2.4978		-0.1583		H		1		UNL1		0.1545
21		H		1.9056		-2.4810		-0.2257		H		1		UNL1		0.1327
22		H		-0.0415		-1.3534		-0.1965		H		1		UNL1		0.3424
23		H		-1.1626		3.7169		0.2078		H		1		UNL1		0.1468
24		H		-3.5403		2.9449		0.0801		H		1		UNL1		0.1317
25		H		-4.9309		0.9935		-0.3135		H		1		UNL1		0.3288
26		H		-4.1177		-1.3861		-1.4254		H		1		UNL1		0.1586
27		H		-6.3017		-2.3031		-0.5703		H		1		UNL1		0.1618
28		H		-6.3865		-0.9684		0.6733		H		1		UNL1		0.1574
29		H		-4.0708		-3.0542		0.4370		H		1		UNL1		0.1572
30		H		-4.1883		-1.6952		1.6566		H		1		UNL1		0.1672
31		H		1.9012		1.8084		0.1142		H		1		UNL1		0.1897
32		H		4.3783		1.7915		0.1804		H		1		UNL1		0.1553
@<TRIPOS>BOND
1		26		14		1
2		27		15		1
3		14		13		1
4		14		15		1
5		14		16		1
6		25		13		1
7		21		5		1
8		22		7		1
9		20		4		1
10		13		12		1
11		17		12		ar
12		17		8		ar
13		5		4		ar
14		5		6		ar
15		7		6		1
16		7		8		1
17		4		3		ar
18		12		11		ar
19		6		18		ar
20		8		9		ar
21		3		2		1
22		3		19		ar
23		11		24		1
24		11		10		ar
25		18		19		ar
26		18		31		1
27		2		1		3
28		9		10		ar
29		15		16		1
30		15		28		1
31		19		32		1
32		10		23		1
33		29		16		1
34		16		30		1

