@<TRIPOS>MOLECULE
GSX-2011-BMC-7093-1c
 43 45 0 0 0
SMALL
MULLIKEN_CHARGES

@<TRIPOS>ATOM
1		C		-2.4498		3.7281		0.1467		C.3		1		UNL1		-0.5191
2		C		-1.3988		2.6553		0.0997		C.ar		1		UNL1		0.0782
3		C		-0.0387		2.9054		0.1373		C.ar		1		UNL1		0.0126
4		N		0.9180		1.9591		0.0897		N.ar		1		UNL1		-0.4925
5		C		0.4730		0.7076		0.0014		C.ar		1		UNL1		0.6963
6		N		1.3594		-0.3529		-0.0523		N.pl3		1		UNL1		-0.7681
7		C		2.7516		-0.4104		-0.0470		C.ar		1		UNL1		0.3837
8		C		3.3351		-1.6930		-0.1115		C.ar		1		UNL1		-0.2066
9		C		4.7105		-1.8517		-0.1149		C.ar		1		UNL1		-0.1409
10		C		5.5521		-0.7266		-0.0535		C.ar		1		UNL1		0.1299
11		C		6.9742		-0.8825		-0.0573		C.1		1		UNL1		0.2258
12		N		8.1314		-1.0111		-0.0606		N.1		1		UNL1		-0.4873
13		C		4.9714		0.5511		0.0114		C.ar		1		UNL1		-0.1540
14		C		3.5925		0.7172		0.0155		C.ar		1		UNL1		-0.1600
15		N		-0.8199		0.3169		-0.0432		N.ar		1		UNL1		-0.5856
16		C		-1.7293		1.2798		0.0015		C.ar		1		UNL1		0.5543
17		O		-3.0371		0.9843		-0.0558		O.3		1		UNL1		-0.5216
18		C		-3.4668		-0.3943		-0.2215		C.3		1		UNL1		0.1413
19		C		-4.7984		-0.3388		-0.9685		C.3		1		UNL1		-0.2735
20		C		-5.3966		-1.7463		-1.1270		C.3		1		UNL1		-0.2701
21		C		-5.5404		-2.4519		0.2302		C.3		1		UNL1		-0.2574
22		C		-4.2015		-2.4890		0.9829		C.3		1		UNL1		-0.2695
23		C		-3.6007		-1.0809		1.1397		C.3		1		UNL1		-0.2806
24		H		-3.0870		3.7038		-0.7452		H		1		UNL1		0.1697
25		H		-3.1130		3.6033		1.0109		H		1		UNL1		0.1694
26		H		-1.9879		4.7185		0.2107		H		1		UNL1		0.1548
27		H		0.3200		3.9317		0.2078		H		1		UNL1		0.1444
28		H		0.8786		-1.2408		-0.1136		H		1		UNL1		0.3415
29		H		2.6947		-2.5710		-0.1593		H		1		UNL1		0.1327
30		H		5.1430		-2.8458		-0.1650		H		1		UNL1		0.1555
31		H		5.6134		1.4252		0.0589		H		1		UNL1		0.1564
32		H		3.1515		1.7022		0.0662		H		1		UNL1		0.1903
33		H		-2.7135		-0.9130		-0.8229		H		1		UNL1		0.1529
34		H		-5.4905		0.2991		-0.4020		H		1		UNL1		0.1424
35		H		-4.6517		0.1365		-1.9455		H		1		UNL1		0.1439
36		H		-4.7478		-2.3468		-1.7813		H		1		UNL1		0.1335
37		H		-6.3685		-1.6801		-1.6305		H		1		UNL1		0.1412
38		H		-6.2835		-1.9168		0.8392		H		1		UNL1		0.1335
39		H		-5.9247		-3.4698		0.0897		H		1		UNL1		0.1368
40		H		-4.3285		-2.9478		1.9709		H		1		UNL1		0.1408
41		H		-3.4943		-3.1272		0.4330		H		1		UNL1		0.1328
42		H		-2.6200		-1.1276		1.6252		H		1		UNL1		0.1524
43		H		-4.2525		-0.4658		1.7754		H		1		UNL1		0.1397
@<TRIPOS>BOND
1		35		19		1
2		36		20		1
3		37		20		1
4		20		19		1
5		20		21		1
6		19		34		1
7		19		18		1
8		33		18		1
9		24		1		1
10		18		17		1
11		18		23		1
12		30		9		1
13		29		8		1
14		9		8		ar
15		9		10		ar
16		28		6		1
17		8		7		ar
18		12		11		3
19		11		10		1
20		17		16		1
21		10		13		ar
22		6		7		1
23		6		5		1
24		7		14		ar
25		15		5		ar
26		15		16		ar
27		5		4		ar
28		16		2		ar
29		13		14		ar
30		13		31		1
31		14		32		1
32		4		3		ar
33		39		21		1
34		2		3		ar
35		2		1		1
36		3		27		1
37		1		26		1
38		1		25		1
39		21		38		1
40		21		22		1
41		41		22		1
42		22		23		1
43		22		40		1
44		23		42		1
45		23		43		1

