@<TRIPOS>MOLECULE
GSX-2011-BMC-5117-10p
 40 42 0 0 0
SMALL
MULLIKEN_CHARGES
****
Gaussian 16 #p B3LYP/6-31G* opt
@<TRIPOS>ATOM
1		C		-1.6286		4.3965		0.2703		C.3		1		UNL1		-0.5122
2		C		-0.9564		3.0875		-0.0464		C.ar		1		UNL1		0.3371
3		C		-1.6541		2.0132		-0.6116		C.ar		1		UNL1		-0.2216
4		C		-0.9390		0.8396		-0.8332		C.ar		1		UNL1		0.3270
5		C		-1.5584		-0.4094		-1.4703		C.3		1		UNL1		0.0041
6		O		-0.7063		-1.5273		-1.3544		O.3		1		UNL1		-0.6366
7		C		-2.9595		-0.7182		-0.9527		C.ar		1		UNL1		0.1687
8		C		-4.0436		-0.6485		-1.8366		C.ar		1		UNL1		-0.2037
9		C		-5.3460		-0.9369		-1.4282		C.ar		1		UNL1		-0.1218
10		C		-5.5858		-1.3141		-0.1083		C.ar		1		UNL1		-0.1280
11		C		-4.5247		-1.3964		0.7945		C.ar		1		UNL1		-0.1464
12		C		-3.2327		-1.0987		0.3683		C.ar		1		UNL1		0.0351
13		BR		-1.8287		-1.2153		1.6649		Br		1		UNL1		-0.1251
14		N		0.3630		0.7389		-0.5458		N.ar		1		UNL1		-0.5927
15		C		0.9464		1.8259		-0.0234		C.ar		1		UNL1		0.6915
16		N		2.2871		1.8038		0.2989		N.pl3		1		UNL1		-0.7691
17		C		3.2873		0.8488		0.1107		C.ar		1		UNL1		0.3854
18		C		4.5306		1.1077		0.7232		C.ar		1		UNL1		-0.2034
19		C		5.5938		0.2324		0.5784		C.ar		1		UNL1		-0.1396
20		C		5.4467		-0.9377		-0.1876		C.ar		1		UNL1		0.1310
21		C		6.5404		-1.8477		-0.3394		C.1		1		UNL1		0.2287
22		N		7.4324		-2.5857		-0.4619		N.1		1		UNL1		-0.4833
23		C		4.2104		-1.1947		-0.8021		C.ar		1		UNL1		-0.1542
24		C		3.1412		-0.3184		-0.6622		C.ar		1		UNL1		-0.1624
25		N		0.3461		2.9976		0.2481		N.ar		1		UNL1		-0.5384
26		H		-1.6061		4.5781		1.3510		H		1		UNL1		0.1827
27		H		-1.0898		5.2230		-0.2050		H		1		UNL1		0.1803
28		H		-2.6691		4.4091		-0.0648		H		1		UNL1		0.1600
29		H		-2.7104		2.0846		-0.8424		H		1		UNL1		0.1490
30		H		-1.6662		-0.1774		-2.5425		H		1		UNL1		0.1607
31		H		0.0315		-1.2449		-0.7819		H		1		UNL1		0.4279
32		H		-3.8535		-0.3705		-2.8708		H		1		UNL1		0.1400
33		H		-6.1639		-0.8756		-2.1401		H		1		UNL1		0.1402
34		H		-6.5927		-1.5485		0.2254		H		1		UNL1		0.1437
35		H		-4.6942		-1.6893		1.8250		H		1		UNL1		0.1571
36		H		2.5731		2.6661		0.7454		H		1		UNL1		0.3475
37		H		4.6546		2.0066		1.3225		H		1		UNL1		0.1385
38		H		6.5432		0.4463		1.0584		H		1		UNL1		0.1592
39		H		4.0887		-2.0917		-1.4009		H		1		UNL1		0.1626
40		H		2.2003		-0.5290		-1.1483		H		1		UNL1		0.1804
@<TRIPOS>BOND
1		32		8		1
2		30		5		1
3		33		9		1
4		8		9		ar
5		8		7		ar
6		5		6		1
7		5		7		1
8		5		4		1
9		9		10		ar
10		39		23		1
11		6		31		1
12		40		24		1
13		7		12		ar
14		29		3		1
15		4		3		ar
16		4		14		ar
17		23		24		ar
18		23		20		ar
19		24		17		ar
20		3		2		ar
21		14		15		ar
22		22		21		3
23		21		20		1
24		27		1		1
25		20		19		ar
26		10		34		1
27		10		11		ar
28		28		1		1
29		2		25		ar
30		2		1		1
31		15		25		ar
32		15		16		1
33		17		16		1
34		17		18		ar
35		1		26		1
36		16		36		1
37		12		11		ar
38		12		13		1
39		19		18		ar
40		19		38		1
41		18		37		1
42		11		35		1

