@<TRIPOS>MOLECULE
GSX-2011-BMC-5117-10f
 40 42 0 0 0
SMALL
MULLIKEN_CHARGES
****
Gaussian 16 #p B3LYP/6-31G* opt
@<TRIPOS>ATOM
1		C		-7.2533		-1.1743		1.6322		C.3		1		UNL1		-0.5306
2		C		-6.0461		-0.5758		0.9485		C.ar		1		UNL1		0.1796
3		C		-5.8873		-0.6463		-0.4390		C.ar		1		UNL1		-0.1848
4		C		-4.7808		-0.0689		-1.0670		C.ar		1		UNL1		-0.1928
5		C		-3.7983		0.5838		-0.3202		C.ar		1		UNL1		0.1586
6		C		-2.5707		1.1793		-0.9912		C.3		1		UNL1		0.0148
7		O		-2.2733		2.4453		-0.4463		O.3		1		UNL1		-0.6445
8		C		-1.3507		0.2520		-0.8905		C.ar		1		UNL1		0.3305
9		C		-1.4014		-1.1207		-1.1637		C.ar		1		UNL1		-0.1894
10		C		-0.1997		-1.8086		-1.0747		C.ar		1		UNL1		0.0705
11		N		0.9630		-1.2291		-0.7455		N.ar		1		UNL1		-0.4787
12		C		0.9041		0.0838		-0.5005		C.ar		1		UNL1		0.7064
13		N		2.0372		0.7832		-0.1486		N.pl3		1		UNL1		-0.7657
14		C		3.3667		0.3924		0.0300		C.ar		1		UNL1		0.3817
15		C		4.2765		1.4036		0.3994		C.ar		1		UNL1		-0.2059
16		C		5.6166		1.1172		0.6001		C.ar		1		UNL1		-0.1399
17		C		6.0898		-0.1967		0.4365		C.ar		1		UNL1		0.1321
18		C		7.4730		-0.5007		0.6421		C.1		1		UNL1		0.2284
19		N		8.5984		-0.7467		0.8096		N.1		1		UNL1		-0.4829
20		C		5.1830		-1.2040		0.0685		C.ar		1		UNL1		-0.1530
21		C		3.8374		-0.9230		-0.1343		C.ar		1		UNL1		-0.1589
22		N		-0.2071		0.8513		-0.5641		N.ar		1		UNL1		-0.6064
23		C		-3.9528		0.6642		1.0693		C.ar		1		UNL1		-0.1618
24		C		-5.0588		0.0924		1.6901		C.ar		1		UNL1		-0.1788
25		H		-7.9400		-0.3933		1.9842		H		1		UNL1		0.1679
26		H		-6.9652		-1.7665		2.5087		H		1		UNL1		0.1611
27		H		-7.8151		-1.8259		0.9555		H		1		UNL1		0.1557
28		H		-6.6425		-1.1480		-1.0399		H		1		UNL1		0.1242
29		H		-4.6914		-0.1201		-2.1506		H		1		UNL1		0.1247
30		H		-2.7871		1.2744		-2.0712		H		1		UNL1		0.1507
31		H		-1.2991		2.4745		-0.3698		H		1		UNL1		0.4081
32		H		-2.3298		-1.6192		-1.4138		H		1		UNL1		0.1601
33		H		-0.1535		-2.8783		-1.2708		H		1		UNL1		0.1593
34		H		1.8429		1.7643		0.0052		H		1		UNL1		0.3447
35		H		3.9222		2.4237		0.5288		H		1		UNL1		0.1381
36		H		6.3046		1.9067		0.8843		H		1		UNL1		0.1598
37		H		5.5402		-2.2209		-0.0597		H		1		UNL1		0.1597
38		H		3.1461		-1.7034		-0.4173		H		1		UNL1		0.1903
39		H		-3.2073		1.1947		1.6537		H		1		UNL1		0.1414
40		H		-5.1627		0.1665		2.7707		H		1		UNL1		0.1256
@<TRIPOS>BOND
1		29		4		1
2		30		6		1
3		32		9		1
4		33		10		1
5		9		10		ar
6		9		8		ar
7		10		11		ar
8		4		3		ar
9		4		5		ar
10		28		3		1
11		6		8		1
12		6		7		1
13		6		5		1
14		8		22		ar
15		11		12		ar
16		22		12		ar
17		12		13		1
18		7		31		1
19		3		2		ar
20		38		21		1
21		5		23		ar
22		13		34		1
23		13		14		1
24		21		14		ar
25		21		20		ar
26		37		20		1
27		14		15		ar
28		20		17		ar
29		15		35		1
30		15		16		ar
31		17		16		ar
32		17		18		1
33		16		36		1
34		18		19		3
35		2		1		1
36		2		24		ar
37		27		1		1
38		23		39		1
39		23		24		ar
40		1		25		1
41		1		26		1
42		24		40		1

