@<TRIPOS>MOLECULE
GSX-2019-EJMC277-5-15b6
 57 59 0 0 0
SMALL
MULLIKEN_CHARGES

@<TRIPOS>ATOM
1		C		-3.6104		4.4952		0.1935		C.3		1		UNL1		-0.5343
2		C		-1.6750		3.2101		1.1998		C.ar		1		UNL1		-0.2756
3		C		-0.5356		2.4041		1.1090		C.ar		1		UNL1		0.1931
4		C		-0.1553		1.9765		-0.1659		C.ar		1		UNL1		0.2003
5		C		-0.8394		2.3330		-1.3304		C.ar		1		UNL1		0.1907
6		C		-1.9728		3.1405		-1.1835		C.ar		1		UNL1		-0.2784
7		C		-2.4066		3.5895		0.0686		C.ar		1		UNL1		0.2099
8		C		1.0258		-0.0884		-0.2412		C.ar		1		UNL1		0.5541
9		C		2.2571		-0.7969		-0.3120		C.ar		1		UNL1		0.0059
10		C		2.1073		-2.1924		-0.2929		C.ar		1		UNL1		0.0149
11		N		0.9479		-2.8343		-0.2039		N.ar		1		UNL1		-0.5015
12		C		-0.1419		-2.0392		-0.1321		C.ar		1		UNL1		0.6995
13		N		-0.1500		-0.7017		-0.1520		N.ar		1		UNL1		-0.5532
14		C		-4.4292		-0.6810		0.1531		C.ar		1		UNL1		-0.1591
15		C		-3.0743		-0.9778		0.0685		C.ar		1		UNL1		-0.1632
16		C		-2.6557		-2.3204		0.0510		C.ar		1		UNL1		0.3749
17		C		-3.6234		-3.3422		0.1226		C.ar		1		UNL1		-0.2027
18		C		-4.9725		-3.0395		0.2076		C.ar		1		UNL1		-0.1407
19		C		-5.3944		-1.6984		0.2234		C.ar		1		UNL1		0.1340
20		O		1.0458		1.2478		-0.2859		O.3		1		UNL1		-0.5252
21		N		-1.3210		-2.7316		-0.0338		N.pl3		1		UNL1		-0.7617
22		C		-6.7863		-1.3767		0.3104		C.1		1		UNL1		0.2297
23		N		-7.9185		-1.1154		0.3812		N.1		1		UNL1		-0.4819
24		C		3.5885		-0.1445		-0.3599		C.2		1		UNL1		0.3827
25		C		0.2563		2.0032		2.3286		C.3		1		UNL1		-0.5411
26		C		-0.3717		1.8590		-2.6837		C.3		1		UNL1		-0.5386
27		C		4.8145		-1.0282		-0.6271		C.3		1		UNL1		-0.1934
28		O		3.7406		1.0548		-0.1696		O.2		1		UNL1		-0.4699
29		N		5.9765		-0.2167		-0.9328		N.3		1		UNL1		-0.5635
30		C		7.2445		-0.7244		-0.4329		C.3		1		UNL1		-0.1824
31		C		7.4754		-0.6963		1.0669		C.2		1		UNL1		-0.0662
32		C		6.7072		-0.0810		1.9669		C.2		1		UNL1		-0.3517
33		H		-4.3084		4.3523		-0.6380		H		1		UNL1		0.1592
34		H		-3.3137		5.5526		0.1912		H		1		UNL1		0.1695
35		H		-4.1545		4.3148		1.1269		H		1		UNL1		0.1601
36		H		-1.9924		3.5551		2.1817		H		1		UNL1		0.1221
37		H		-2.5247		3.4303		-2.0753		H		1		UNL1		0.1222
38		H		2.9847		-2.8327		-0.3411		H		1		UNL1		0.1667
39		H		-4.7439		0.3576		0.1649		H		1		UNL1		0.1633
40		H		-2.3446		-0.1833		0.0162		H		1		UNL1		0.2105
41		H		-3.3077		-4.3828		0.1103		H		1		UNL1		0.1406
42		H		-5.7065		-3.8369		0.2617		H		1		UNL1		0.1607
43		H		-1.1626		-3.7320		-0.0334		H		1		UNL1		0.3526
44		H		1.3282		2.1696		2.1775		H		1		UNL1		0.1862
45		H		0.1236		0.9376		2.5570		H		1		UNL1		0.1646
46		H		-0.0650		2.5732		3.2051		H		1		UNL1		0.1577
47		H		-0.4975		0.7743		-2.7908		H		1		UNL1		0.1666
48		H		0.6907		2.0781		-2.8374		H		1		UNL1		0.1788
49		H		-0.9417		2.3420		-3.4825		H		1		UNL1		0.1583
50		H		4.5947		-1.7172		-1.4565		H		1		UNL1		0.1574
51		H		4.9545		-1.6558		0.2726		H		1		UNL1		0.1571
52		H		5.7989		0.7366		-0.6225		H		1		UNL1		0.3288
53		H		8.0521		-0.1558		-0.9184		H		1		UNL1		0.1580
54		H		7.3693		-1.7560		-0.7936		H		1		UNL1		0.1448
55		H		8.3739		-1.2188		1.4016		H		1		UNL1		0.1226
56		H		6.9553		-0.0895		3.0246		H		1		UNL1		0.1394
57		H		5.8087		0.4616		1.6821		H		1		UNL1		0.1467
@<TRIPOS>BOND
1		49		26		1
2		48		26		1
3		47		26		1
4		26		5		1
5		37		6		1
6		50		27		1
7		5		6		ar
8		5		4		ar
9		6		7		ar
10		29		27		1
11		29		52		1
12		29		30		1
13		53		30		1
14		54		30		1
15		33		1		1
16		27		24		1
17		27		51		1
18		30		31		1
19		24		9		1
20		24		28		2
21		38		10		1
22		9		10		ar
23		9		8		ar
24		10		11		ar
25		20		8		1
26		20		4		1
27		8		13		ar
28		11		12		ar
29		4		3		ar
30		13		12		ar
31		12		21		1
32		21		43		1
33		21		16		1
34		40		15		1
35		16		15		ar
36		16		17		ar
37		15		14		ar
38		7		1		1
39		7		2		ar
40		41		17		1
41		17		18		ar
42		14		39		1
43		14		19		ar
44		34		1		1
45		1		35		1
46		18		19		ar
47		18		42		1
48		19		22		1
49		22		23		3
50		31		55		1
51		31		32		2
52		3		2		ar
53		3		25		1
54		2		36		1
55		57		32		1
56		32		56		1
57		44		25		1
58		25		45		1
59		25		46		1

