@<TRIPOS>MOLECULE
GSX-2019-EJMC277-11-34a
 48 51 0 0 0
SMALL
MULLIKEN_CHARGES
****
Gaussian 16 #p B3LYP/6-31G* opt
@<TRIPOS>ATOM
1		C		4.0773		-2.8199		-0.9988		C.ar		1		UNL1		-0.1446
2		C		2.7990		-3.1387		-1.4247		C.ar		1		UNL1		-0.1536
3		C		1.7323		-2.4168		-0.8744		C.ar		1		UNL1		0.3707
4		C		1.9233		-1.3923		0.0907		C.ar		1		UNL1		0.0713
5		C		3.2296		-1.0898		0.5233		C.ar		1		UNL1		-0.1927
6		C		4.2731		-1.8060		-0.0359		C.ar		1		UNL1		-0.0783
7		N		0.3851		-2.5160		-1.1051		N.ar		1		UNL1		-0.7217
8		C		-0.3147		-1.6148		-0.3498		C.ar		1		UNL1		0.2465
9		C		0.6093		-0.8920		0.4148		C.ar		1		UNL1		-0.2869
10		S		0.3613		0.5031		1.4826		S.O2		1		UNL1		1.1745
11		O		1.4725		0.5254		2.4425		O.2		1		UNL1		-0.5450
12		O		-1.0338		0.4681		1.9856		O.2		1		UNL1		-0.5978
13		C		0.5117		1.9493		0.4235		C.ar		1		UNL1		-0.1277
14		C		-0.5744		2.3355		-0.3675		C.ar		1		UNL1		-0.2017
15		C		-0.4554		3.4521		-1.1957		C.ar		1		UNL1		0.1807
16		C		0.7629		4.1511		-1.2031		C.ar		1		UNL1		-0.2193
17		C		1.8490		3.7757		-0.4087		C.ar		1		UNL1		0.1789
18		C		1.7135		2.6495		0.4169		C.ar		1		UNL1		-0.1939
19		C		3.1401		4.5604		-0.4202		C.3		1		UNL1		-0.5309
20		C		-1.6094		3.9120		-2.0556		C.3		1		UNL1		-0.5319
21		C		-1.7972		-1.7025		-0.5869		C.2		1		UNL1		0.6047
22		O		-2.1817		-2.4227		-1.5107		O.2		1		UNL1		-0.5422
23		N		-2.6055		-0.9961		0.2475		N.am		1		UNL1		-0.7917
24		C		-4.0075		-0.9132		0.2243		C.ar		1		UNL1		0.3762
25		CL		5.9210		-1.4543		0.4738		Cl		1		UNL1		-0.0216
26		C		-4.6180		-0.1160		1.2058		C.ar		1		UNL1		-0.2232
27		C		-6.0038		-0.0053		1.2098		C.ar		1		UNL1		0.0376
28		N		-6.8103		-0.6132		0.3285		N.ar		1		UNL1		-0.4124
29		C		-6.2093		-1.3686		-0.5989		C.ar		1		UNL1		0.0267
30		C		-4.8319		-1.5599		-0.7070		C.ar		1		UNL1		-0.1679
31		H		4.9365		-3.3487		-1.3959		H		1		UNL1		0.1609
32		H		2.6334		-3.9211		-2.1590		H		1		UNL1		0.1502
33		H		3.4072		-0.3394		1.2824		H		1		UNL1		0.1950
34		H		-0.1109		-3.1291		-1.7419		H		1		UNL1		0.3614
35		H		-1.5071		1.7818		-0.3277		H		1		UNL1		0.1549
36		H		0.8622		5.0217		-1.8488		H		1		UNL1		0.1311
37		H		2.5269		2.3314		1.0610		H		1		UNL1		0.1746
38		H		3.9998		3.9103		-0.6199		H		1		UNL1		0.1727
39		H		3.3184		5.0421		0.5491		H		1		UNL1		0.1758
40		H		3.1245		5.3434		-1.1841		H		1		UNL1		0.1608
41		H		-1.3084		4.0110		-3.1052		H		1		UNL1		0.1687
42		H		-1.9783		4.8929		-1.7313		H		1		UNL1		0.1735
43		H		-2.4473		3.2102		-2.0104		H		1		UNL1		0.1669
44		H		-2.1415		-0.4884		1.0068		H		1		UNL1		0.4376
45		H		-4.0186		0.4045		1.9478		H		1		UNL1		0.1618
46		H		-6.4932		0.6079		1.9648		H		1		UNL1		0.1434
47		H		-6.8696		-1.8611		-1.3112		H		1		UNL1		0.1430
48		H		-4.4116		-2.1867		-1.4798		H		1		UNL1		0.1849
@<TRIPOS>BOND
1		41		20		1
2		32		2		1
3		20		43		1
4		20		42		1
5		20		15		1
6		36		16		1
7		34		7		1
8		22		21		2
9		48		30		1
10		2		1		ar
11		2		3		ar
12		31		1		1
13		47		29		1
14		16		15		ar
15		16		17		ar
16		15		14		ar
17		40		19		1
18		7		3		ar
19		7		8		ar
20		1		6		ar
21		3		4		ar
22		30		29		ar
23		30		24		ar
24		38		19		1
25		29		28		ar
26		21		8		1
27		21		23		1
28		19		17		1
29		19		39		1
30		17		18		ar
31		14		35		1
32		14		13		ar
33		8		9		ar
34		6		25		1
35		6		5		ar
36		4		9		ar
37		4		5		ar
38		24		23		1
39		24		26		ar
40		23		44		1
41		28		27		ar
42		9		10		1
43		18		13		ar
44		18		37		1
45		13		10		1
46		5		33		1
47		26		27		ar
48		26		45		1
49		27		46		1
50		10		12		2
51		10		11		2

