@<TRIPOS>MOLECULE
GSX-2011-BMC-7093-1g
 41 43 0 0 0
SMALL
MULLIKEN_CHARGES

@<TRIPOS>ATOM
1		N		6.6530		-3.1784		0.0101		N.1		1		UNL1		-0.4886
2		C		5.8619		-2.3240		0.0221		C.1		1		UNL1		0.2246
3		C		4.8900		-1.2748		0.0367		C.ar		1		UNL1		0.1292
4		C		3.5196		-1.5667		-0.0665		C.ar		1		UNL1		-0.1535
5		C		2.5650		-0.5583		-0.0544		C.ar		1		UNL1		-0.1567
6		C		2.9648		0.7870		0.0628		C.ar		1		UNL1		0.3857
7		N		2.0911		1.8682		0.0848		N.pl3		1		UNL1		-0.7690
8		C		0.7134		1.9717		-0.0111		C.ar		1		UNL1		0.6987
9		N		0.2872		3.2505		0.0428		N.ar		1		UNL1		-0.5106
10		C		-1.0379		3.4002		-0.0452		C.ar		1		UNL1		0.0590
11		C		-1.9329		2.3502		-0.1823		C.ar		1		UNL1		-0.2136
12		C		-1.3688		1.0564		-0.2323		C.ar		1		UNL1		0.5672
13		N		-2.1023		-0.0776		-0.3821		N.pl3		1		UNL1		-0.6657
14		C		-3.5537		-0.1626		-0.5108		C.3		1		UNL1		0.0688
15		C		-3.9109		-1.5068		-1.1859		C.3		1		UNL1		-0.2983
16		C		-5.3535		-1.9188		-0.8672		C.3		1		UNL1		-0.2714
17		C		-5.5323		-2.2027		0.6443		C.3		1		UNL1		-0.2615
18		C		-4.5796		-1.3456		1.5115		C.3		1		UNL1		-0.2721
19		C		-4.2979		0.0070		0.8461		C.3		1		UNL1		-0.2719
20		N		-0.0323		0.8747		-0.1407		N.ar		1		UNL1		-0.5868
21		C		4.3420		1.0785		0.1670		C.ar		1		UNL1		-0.2053
22		C		5.2890		0.0690		0.1543		C.ar		1		UNL1		-0.1410
23		H		3.2024		-2.6010		-0.1576		H		1		UNL1		0.1519
24		H		1.5131		-0.7886		-0.1352		H		1		UNL1		0.1722
25		H		2.5146		2.7831		0.1759		H		1		UNL1		0.3457
26		H		-1.4029		4.4254		-0.0008		H		1		UNL1		0.1458
27		H		-2.9994		2.5239		-0.2399		H		1		UNL1		0.1389
28		H		-1.5615		-0.9320		-0.3909		H		1		UNL1		0.3300
29		H		-3.8691		0.6480		-1.1804		H		1		UNL1		0.1448
30		H		-3.2324		-2.2899		-0.8155		H		1		UNL1		0.1333
31		H		-3.7418		-1.4357		-2.2660		H		1		UNL1		0.1531
32		H		-5.6339		-2.7988		-1.4568		H		1		UNL1		0.1438
33		H		-6.0304		-1.1137		-1.1832		H		1		UNL1		0.1382
34		H		-5.3519		-3.2655		0.8474		H		1		UNL1		0.1387
35		H		-6.5738		-2.0083		0.9283		H		1		UNL1		0.1392
36		H		-3.6276		-1.8730		1.6602		H		1		UNL1		0.1357
37		H		-5.0022		-1.1998		2.5120		H		1		UNL1		0.1424
38		H		-5.2497		0.5256		0.6669		H		1		UNL1		0.1351
39		H		-3.7080		0.6548		1.5032		H		1		UNL1		0.1523
40		H		4.6634		2.1135		0.2578		H		1		UNL1		0.1361
41		H		6.3436		0.3123		0.2349		H		1		UNL1		0.1555
@<TRIPOS>BOND
1		31		15		1
2		32		16		1
3		15		16		1
4		15		30		1
5		15		14		1
6		33		16		1
7		29		14		1
8		16		17		1
9		14		13		1
10		14		19		1
11		28		13		1
12		13		12		1
13		27		11		1
14		12		11		ar
15		12		20		ar
16		11		10		ar
17		23		4		1
18		20		8		ar
19		24		5		1
20		4		5		ar
21		4		3		ar
22		5		6		ar
23		10		26		1
24		10		9		ar
25		8		9		ar
26		8		7		1
27		1		2		3
28		2		3		1
29		3		22		ar
30		6		7		1
31		6		21		ar
32		7		25		1
33		22		21		ar
34		22		41		1
35		21		40		1
36		17		34		1
37		17		35		1
38		17		18		1
39		38		19		1
40		19		39		1
41		19		18		1
42		18		36		1
43		18		37		1

