@<TRIPOS>MOLECULE
GSX-2019-EJMC277-5-15a2
 60 62 0 0 0
SMALL
MULLIKEN_CHARGES
****
Gaussian 16 #p B3LYP/6-31G* opt
@<TRIPOS>ATOM
1		C		6.5731		-4.3460		1.8432		C.3		1		UNL1		-0.4432
2		C		7.3245		-3.1708		1.2047		C.3		1		UNL1		-0.2531
3		C		6.6665		-2.5990		-0.0614		C.3		1		UNL1		-0.2633
4		C		5.3132		-1.9251		0.1772		C.3		1		UNL1		-0.1216
5		N		4.8327		-1.2913		-1.0584		N.3		1		UNL1		-0.5385
6		C		3.5355		-0.6600		-0.9263		C.3		1		UNL1		-0.2247
7		C		2.3489		-1.6373		-0.9442		C.2		1		UNL1		0.3877
8		O		2.5422		-2.8149		-1.2200		O.2		1		UNL1		-0.4719
9		C		0.9545		-1.1742		-0.6709		C.ar		1		UNL1		-0.0109
10		C		-0.0666		-2.1338		-0.6775		C.ar		1		UNL1		0.0486
11		N		-1.3550		-1.8839		-0.4491		N.ar		1		UNL1		-0.4843
12		C		-1.6517		-0.5982		-0.2019		C.ar		1		UNL1		0.7086
13		N		-2.9430		-0.2174		0.0483		N.pl3		1		UNL1		-0.7632
14		C		-4.1451		-0.9352		0.1117		C.ar		1		UNL1		0.3773
15		C		-4.2538		-2.3216		-0.0930		C.ar		1		UNL1		-0.1564
16		C		-5.4987		-2.9334		-0.0063		C.ar		1		UNL1		-0.1529
17		C		-6.6549		-2.1909		0.2828		C.ar		1		UNL1		0.1346
18		C		-7.9308		-2.8343		0.3691		C.1		1		UNL1		0.2314
19		N		-8.9688		-3.3560		0.4397		N.1		1		UNL1		-0.4784
20		C		-6.5420		-0.8046		0.4867		C.ar		1		UNL1		-0.1395
21		C		-5.3037		-0.1891		0.4016		C.ar		1		UNL1		-0.2052
22		N		-0.7733		0.4271		-0.1699		N.ar		1		UNL1		-0.5721
23		C		0.4947		0.1377		-0.3991		C.ar		1		UNL1		0.5270
24		O		1.3944		1.1508		-0.3791		O.3		1		UNL1		-0.5679
25		C		0.9632		2.4641		-0.1315		C.ar		1		UNL1		0.2383
26		C		0.6552		3.2716		-1.2327		C.ar		1		UNL1		0.1807
27		C		0.6770		2.7182		-2.6351		C.3		1		UNL1		-0.5387
28		C		0.3271		4.6042		-0.9795		C.ar		1		UNL1		-0.2311
29		C		0.3141		5.1018		0.3317		C.ar		1		UNL1		0.1694
30		C		-0.0276		6.4734		0.5734		C.1		1		UNL1		0.2313
31		N		-0.3083		7.5851		0.7700		N.1		1		UNL1		-0.4753
32		C		0.6386		4.2616		1.4068		C.ar		1		UNL1		-0.2316
33		C		0.9716		2.9237		1.1907		C.ar		1		UNL1		0.1813
34		C		1.3253		2.0062		2.3337		C.3		1		UNL1		-0.5390
35		H		6.4387		-5.1642		1.1247		H		1		UNL1		0.1444
36		H		5.5788		-4.0537		2.1990		H		1		UNL1		0.1455
37		H		7.1254		-4.7449		2.7018		H		1		UNL1		0.1421
38		H		7.4443		-2.3664		1.9448		H		1		UNL1		0.1294
39		H		8.3409		-3.4974		0.9481		H		1		UNL1		0.1349
40		H		6.5407		-3.4065		-0.7988		H		1		UNL1		0.1297
41		H		7.3341		-1.8596		-0.5215		H		1		UNL1		0.1445
42		H		5.4325		-1.1325		0.9302		H		1		UNL1		0.1272
43		H		4.5929		-2.6529		0.5860		H		1		UNL1		0.1318
44		H		4.7582		-2.0141		-1.7741		H		1		UNL1		0.3047
45		H		3.3783		0.0551		-1.7484		H		1		UNL1		0.1691
46		H		3.5105		-0.0565		-0.0129		H		1		UNL1		0.1652
47		H		0.2054		-3.1656		-0.8832		H		1		UNL1		0.1937
48		H		-3.0168		0.7786		0.2158		H		1		UNL1		0.3532
49		H		-3.3683		-2.8989		-0.3158		H		1		UNL1		0.1958
50		H		-5.5786		-4.0041		-0.1649		H		1		UNL1		0.1642
51		H		-7.4269		-0.2182		0.7107		H		1		UNL1		0.1636
52		H		-5.2275		0.8840		0.5612		H		1		UNL1		0.1423
53		H		1.6446		2.2604		-2.8685		H		1		UNL1		0.1797
54		H		0.4876		3.5081		-3.3667		H		1		UNL1		0.1684
55		H		-0.0891		1.9450		-2.7676		H		1		UNL1		0.1761
56		H		0.0817		5.2645		-1.8053		H		1		UNL1		0.1589
57		H		0.6326		4.6585		2.4171		H		1		UNL1		0.1587
58		H		2.3065		1.5419		2.1848		H		1		UNL1		0.1785
59		H		1.3483		2.5553		3.2787		H		1		UNL1		0.1684
60		H		0.5932		1.1959		2.4317		H		1		UNL1		0.1766
@<TRIPOS>BOND
1		54		27		1
2		53		27		1
3		55		27		1
4		27		26		1
5		56		28		1
6		44		5		1
7		45		6		1
8		26		28		ar
9		26		25		ar
10		8		7		2
11		5		6		1
12		5		4		1
13		28		29		ar
14		7		6		1
15		7		9		1
16		6		46		1
17		47		10		1
18		40		3		1
19		10		9		ar
20		10		11		ar
21		9		23		ar
22		41		3		1
23		11		12		ar
24		23		24		1
25		23		22		ar
26		24		25		1
27		49		15		1
28		12		22		ar
29		12		13		1
30		50		16		1
31		25		33		ar
32		15		16		ar
33		15		14		ar
34		3		4		1
35		3		2		1
36		16		17		ar
37		13		14		1
38		13		48		1
39		14		21		ar
40		4		43		1
41		4		42		1
42		17		18		1
43		17		20		ar
44		29		30		1
45		29		32		ar
46		18		19		3
47		21		20		ar
48		21		52		1
49		20		51		1
50		30		31		3
51		39		2		1
52		35		1		1
53		33		32		ar
54		33		34		1
55		2		1		1
56		2		38		1
57		32		57		1
58		1		36		1
59		1		37		1
60		58		34		1
61		34		60		1
62		34		59		1

