@<TRIPOS>MOLECULE
GSX-2011-BMC-5117-10d
 40 42 0 0 0
SMALL
MULLIKEN_CHARGES
****
Gaussian 16 #p B3LYP/6-31G* opt
@<TRIPOS>ATOM
1		C		3.1095		1.2726		1.8116		C.3		1		UNL1		-0.5405
2		C		4.1858		0.5430		1.0409		C.ar		1		UNL1		0.1405
3		C		5.3586		0.1534		1.6980		C.ar		1		UNL1		-0.1865
4		C		6.3851		-0.5248		1.0382		C.ar		1		UNL1		-0.1218
5		C		6.2546		-0.8237		-0.3151		C.ar		1		UNL1		-0.1308
6		C		5.0954		-0.4355		-0.9885		C.ar		1		UNL1		-0.2041
7		C		4.0583		0.2367		-0.3332		C.ar		1		UNL1		0.1266
8		C		2.8240		0.6104		-1.1436		C.3		1		UNL1		0.0105
9		O		2.5740		2.0007		-1.0924		O.3		1		UNL1		-0.6405
10		C		1.5744		-0.1842		-0.7480		C.ar		1		UNL1		0.3237
11		C		1.5922		-1.5611		-0.4920		C.ar		1		UNL1		-0.1926
12		C		0.3660		-2.1480		-0.2121		C.ar		1		UNL1		0.0694
13		N		-0.7892		-1.4698		-0.1790		N.ar		1		UNL1		-0.4782
14		C		-0.6982		-0.1607		-0.4373		C.ar		1		UNL1		0.7054
15		N		-1.8220		0.6350		-0.4282		N.pl3		1		UNL1		-0.7659
16		C		-3.1701		0.3576		-0.1863		C.ar		1		UNL1		0.3816
17		C		-3.6756		-0.9173		0.1266		C.ar		1		UNL1		-0.1589
18		C		-5.0370		-1.0833		0.3495		C.ar		1		UNL1		-0.1529
19		C		-5.9256		0.0013		0.2688		C.ar		1		UNL1		0.1323
20		C		-7.3254		-0.1845		0.5008		C.1		1		UNL1		0.2286
21		N		-8.4643		-0.3344		0.6893		N.1		1		UNL1		-0.4826
22		C		-5.4175		1.2745		-0.0440		C.ar		1		UNL1		-0.1399
23		C		-4.0615		1.4463		-0.2673		C.ar		1		UNL1		-0.2059
24		N		0.4387		0.5120		-0.7243		N.ar		1		UNL1		-0.6047
25		H		3.4211		1.4373		2.8476		H		1		UNL1		0.1495
26		H		2.8853		2.2383		1.3510		H		1		UNL1		0.1887
27		H		2.1711		0.7046		1.8365		H		1		UNL1		0.1558
28		H		5.4670		0.3891		2.7542		H		1		UNL1		0.1258
29		H		7.2817		-0.8113		1.5814		H		1		UNL1		0.1316
30		H		7.0465		-1.3432		-0.8474		H		1		UNL1		0.1309
31		H		4.9963		-0.6500		-2.0506		H		1		UNL1		0.1284
32		H		3.0273		0.3179		-2.1898		H		1		UNL1		0.1527
33		H		1.6003		2.0884		-1.0715		H		1		UNL1		0.4075
34		H		2.5135		-2.1305		-0.5010		H		1		UNL1		0.1630
35		H		0.2929		-3.2129		0.0008		H		1		UNL1		0.1601
36		H		-1.6031		1.5998		-0.6409		H		1		UNL1		0.3447
37		H		-2.9986		-1.7566		0.1906		H		1		UNL1		0.1903
38		H		-5.4212		-2.0694		0.5906		H		1		UNL1		0.1599
39		H		-6.0912		2.1226		-0.1101		H		1		UNL1		0.1600
40		H		-3.6802		2.4359		-0.5086		H		1		UNL1		0.1382
@<TRIPOS>BOND
1		32		8		1
2		31		6		1
3		8		9		1
4		8		10		1
5		8		7		1
6		9		33		1
7		6		7		ar
8		6		5		ar
9		30		5		1
10		10		24		ar
11		10		11		ar
12		24		14		ar
13		36		15		1
14		40		23		1
15		34		11		1
16		11		12		ar
17		14		15		1
18		14		13		ar
19		15		16		1
20		7		2		ar
21		5		4		ar
22		23		16		ar
23		23		22		ar
24		12		13		ar
25		12		35		1
26		16		17		ar
27		39		22		1
28		22		19		ar
29		17		37		1
30		17		18		ar
31		19		18		ar
32		19		20		1
33		18		38		1
34		20		21		3
35		4		29		1
36		4		3		ar
37		2		3		ar
38		2		1		1
39		26		1		1
40		3		28		1
41		1		27		1
42		1		25		1

