@<TRIPOS>MOLECULE
GSX-2011-BMC-5117-10z
 43 45 0 0 0
SMALL
MULLIKEN_CHARGES
****
Gaussian 16 #p B3LYP/6-31G* opt
@<TRIPOS>ATOM
1		C		-2.5540		-1.7705		-1.3138		C.3		1		UNL1		-0.5419
2		C		-3.8237		-1.0780		-0.8738		C.ar		1		UNL1		0.1374
3		C		-4.9679		-1.1746		-1.6752		C.ar		1		UNL1		-0.1849
4		C		-6.1730		-0.5682		-1.3188		C.ar		1		UNL1		-0.1235
5		C		-6.2557		0.1492		-0.1281		C.ar		1		UNL1		-0.1315
6		C		-5.1256		0.2535		0.6825		C.ar		1		UNL1		-0.1981
7		C		-3.9075		-0.3359		0.3256		C.ar		1		UNL1		0.1371
8		C		-2.7359		-0.2001		1.2991		C.3		1		UNL1		0.0048
9		O		-2.4130		-1.4619		1.8496		O.3		1		UNL1		-0.6393
10		C		-1.4842		0.4754		0.7180		C.ar		1		UNL1		0.2781
11		N		-0.3638		-0.2347		0.8502		N.ar		1		UNL1		-0.6093
12		C		0.7898		0.2994		0.4018		C.ar		1		UNL1		0.7036
13		N		1.8877		-0.5165		0.5769		N.pl3		1		UNL1		-0.7681
14		C		3.2394		-0.3498		0.2689		C.ar		1		UNL1		0.3825
15		C		4.0991		-1.4163		0.6017		C.ar		1		UNL1		-0.2065
16		C		5.4565		-1.3465		0.3363		C.ar		1		UNL1		-0.1400
17		C		5.9989		-0.2014		-0.2736		C.ar		1		UNL1		0.1317
18		C		7.4004		-0.1217		-0.5511		C.1		1		UNL1		0.2280
19		N		8.5407		-0.0580		-0.7764		N.1		1		UNL1		-0.4835
20		C		5.1422		0.8610		-0.6051		C.ar		1		UNL1		-0.1530
21		C		3.7795		0.7971		-0.3416		C.ar		1		UNL1		-0.1600
22		N		0.9134		1.5016		-0.1650		N.ar		1		UNL1		-0.4759
23		C		-0.2197		2.2056		-0.2681		C.ar		1		UNL1		0.0173
24		C		-1.4750		1.7679		0.1522		C.ar		1		UNL1		0.1210
25		C		-2.6863		2.6530		0.0155		C.3		1		UNL1		-0.5402
26		H		-1.8011		-1.0566		-1.6712		H		1		UNL1		0.1590
27		H		-2.7591		-2.4653		-2.1341		H		1		UNL1		0.1533
28		H		-2.1076		-2.3291		-0.4874		H		1		UNL1		0.1777
29		H		-4.9100		-1.7464		-2.5987		H		1		UNL1		0.1252
30		H		-7.0416		-0.6666		-1.9646		H		1		UNL1		0.1316
31		H		-7.1890		0.6159		0.1744		H		1		UNL1		0.1306
32		H		-5.1900		0.8012		1.6203		H		1		UNL1		0.1270
33		H		-3.0768		0.4686		2.1096		H		1		UNL1		0.1432
34		H		-1.4375		-1.5238		1.8014		H		1		UNL1		0.4079
35		H		1.6412		-1.3949		1.0141		H		1		UNL1		0.3437
36		H		3.6914		-2.3072		1.0739		H		1		UNL1		0.1375
37		H		6.1050		-2.1760		0.5987		H		1		UNL1		0.1593
38		H		5.5527		1.7485		-1.0762		H		1		UNL1		0.1592
39		H		3.1275		1.6187		-0.6002		H		1		UNL1		0.1897
40		H		-0.1172		3.1937		-0.7160		H		1		UNL1		0.1513
41		H		-3.2109		2.7745		0.9706		H		1		UNL1		0.1658
42		H		-2.3885		3.6490		-0.3282		H		1		UNL1		0.1598
43		H		-3.4135		2.2503		-0.6966		H		1		UNL1		0.1923
@<TRIPOS>BOND
1		29		3		1
2		27		1		1
3		30		4		1
4		3		4		ar
5		3		2		ar
6		26		1		1
7		4		5		ar
8		1		2		1
9		1		28		1
10		38		20		1
11		2		7		ar
12		19		18		3
13		40		23		1
14		43		25		1
15		20		21		ar
16		20		17		ar
17		39		21		1
18		18		17		1
19		21		14		ar
20		42		25		1
21		17		16		ar
22		23		22		ar
23		23		24		ar
24		22		12		ar
25		5		31		1
26		5		6		ar
27		25		24		1
28		25		41		1
29		24		10		ar
30		14		13		1
31		14		15		ar
32		7		6		ar
33		7		8		1
34		16		37		1
35		16		15		ar
36		12		13		1
37		12		11		ar
38		13		35		1
39		15		36		1
40		6		32		1
41		10		11		ar
42		10		8		1
43		8		9		1
44		8		33		1
45		34		9		1

