@<TRIPOS>MOLECULE
GSX-2011-BMC-7093-1a
 40 42 0 0 0
SMALL
MULLIKEN_CHARGES
****
Gaussian 16 #p B3LYP/6-31G* opt
@<TRIPOS>ATOM
1		N		-6.8063		-3.0336		0.1593		N.1		1		UNL1		-0.4872
2		C		-5.9863		-2.2075		0.1264		C.1		1		UNL1		0.2262
3		C		-4.9801		-1.1913		0.0870		C.ar		1		UNL1		0.1305
4		C		-5.3380		0.1685		0.1083		C.ar		1		UNL1		-0.1410
5		C		-4.3583		1.1462		0.0696		C.ar		1		UNL1		-0.2054
6		C		-2.9916		0.8034		0.0084		C.ar		1		UNL1		0.3822
7		N		-2.0827		1.8599		-0.0276		N.pl3		1		UNL1		-0.7630
8		C		-0.7049		1.9021		-0.0887		C.ar		1		UNL1		0.6932
9		N		-0.2124		3.1595		-0.1096		N.ar		1		UNL1		-0.4973
10		C		1.1163		3.2361		-0.1658		C.ar		1		UNL1		0.0632
11		C		1.9612		2.1297		-0.2019		C.ar		1		UNL1		-0.2298
12		C		1.3244		0.8779		-0.1796		C.ar		1		UNL1		0.5565
13		O		1.9446		-0.3130		-0.2235		O.2		1		UNL1		-0.4951
14		C		3.3863		-0.4022		-0.2851		C.3		1		UNL1		0.1307
15		C		3.7043		-1.7661		-0.8983		C.3		1		UNL1		-0.2749
16		C		5.2220		-2.0072		-0.9478		C.3		1		UNL1		-0.2719
17		C		5.8645		-1.8530		0.4396		C.3		1		UNL1		-0.2579
18		C		5.5247		-0.4906		1.0627		C.3		1		UNL1		-0.2690
19		C		4.0051		-0.2555		1.1091		C.3		1		UNL1		-0.2845
20		N		-0.0054		0.7666		-0.1209		N.ar		1		UNL1		-0.5385
21		C		-2.6308		-0.5575		-0.0128		C.ar		1		UNL1		-0.1627
22		C		-3.6189		-1.5332		0.0262		C.ar		1		UNL1		-0.1544
23		H		-6.3851		0.4496		0.1552		H		1		UNL1		0.1561
24		H		-4.6470		2.1947		0.0865		H		1		UNL1		0.1358
25		H		-2.4786		2.7912		-0.0090		H		1		UNL1		0.3468
26		H		1.5356		4.2409		-0.1810		H		1		UNL1		0.1524
27		H		3.0347		2.2523		-0.2383		H		1		UNL1		0.1467
28		H		3.7622		0.3844		-0.9534		H		1		UNL1		0.1336
29		H		3.2630		-1.8270		-1.8997		H		1		UNL1		0.1506
30		H		3.2198		-2.5393		-0.2872		H		1		UNL1		0.1503
31		H		5.4224		-3.0053		-1.3549		H		1		UNL1		0.1448
32		H		5.6831		-1.2906		-1.6433		H		1		UNL1		0.1331
33		H		6.9521		-1.9768		0.3695		H		1		UNL1		0.1387
34		H		5.4989		-2.6532		1.0992		H		1		UNL1		0.1366
35		H		5.9396		-0.4164		2.0750		H		1		UNL1		0.1441
36		H		6.0006		0.3075		0.4736		H		1		UNL1		0.1318
37		H		3.7790		0.7323		1.5271		H		1		UNL1		0.1449
38		H		3.5310		-0.9957		1.7675		H		1		UNL1		0.1515
39		H		-1.5863		-0.8296		-0.0595		H		1		UNL1		0.1958
40		H		-3.3336		-2.5804		0.0093		H		1		UNL1		0.1566
@<TRIPOS>BOND
1		29		15		1
2		32		16		1
3		31		16		1
4		28		14		1
5		16		15		1
6		16		17		1
7		15		30		1
8		15		14		1
9		14		13		1
10		14		19		1
11		27		11		1
12		13		12		1
13		11		12		ar
14		11		10		ar
15		26		10		1
16		12		20		ar
17		10		9		ar
18		20		8		ar
19		9		8		ar
20		8		7		1
21		39		21		1
22		7		25		1
23		7		6		1
24		21		6		ar
25		21		22		ar
26		6		5		ar
27		40		22		1
28		22		3		ar
29		5		24		1
30		5		4		ar
31		3		4		ar
32		3		2		1
33		4		23		1
34		2		1		3
35		33		17		1
36		17		18		1
37		17		34		1
38		36		18		1
39		18		19		1
40		18		35		1
41		19		37		1
42		19		38		1

