@<TRIPOS>MOLECULE
GSX-2011-BMC-4220-12i
 58 61 0 0 0
SMALL
MULLIKEN_CHARGES
****
Gaussian 16 #p B3LYP/6-31G* opt
@<TRIPOS>ATOM
1		C		-1.7318		-1.4853		-0.3025		C.3		1		UNL1		-0.5676
2		C		-3.0791		-0.8014		-0.3310		C.ar		1		UNL1		0.1539
3		C		-4.2272		-1.4984		0.0377		C.ar		1		UNL1		-0.2110
4		C		-5.4757		-0.8748		0.0246		C.ar		1		UNL1		-0.1263
5		S		-6.9235		-1.8053		0.5036		S.O2		1		UNL1		1.1642
6		N		-7.3410		-2.6439		-0.9188		N.3		1		UNL1		-0.8144
7		O		-6.5139		-2.8409		1.4580		O.2		1		UNL1		-0.5455
8		O		-7.9875		-0.8424		0.8085		O.2		1		UNL1		-0.5283
9		C		-5.6009		0.4620		-0.3447		C.ar		1		UNL1		-0.1654
10		C		-4.4684		1.1789		-0.7204		C.ar		1		UNL1		-0.1563
11		C		-3.2114		0.5548		-0.7198		C.ar		1		UNL1		0.2988
12		N		-2.0414		1.2399		-1.0946		N.am		1		UNL1		-0.7268
13		C		-1.8840		2.5502		-1.4669		C.2		1		UNL1		0.5826
14		O		-2.7649		3.3917		-1.5617		O.2		1		UNL1		-0.4957
15		C		-0.4364		2.9016		-1.8447		C.3		1		UNL1		-0.1436
16		O		0.5385		2.0072		-1.3265		O.3		1		UNL1		-0.5358
17		C		0.9963		2.2164		-0.0412		C.ar		1		UNL1		0.3184
18		C		0.4161		3.0807		0.8848		C.ar		1		UNL1		-0.1967
19		C		0.9604		3.2252		2.1668		C.ar		1		UNL1		-0.2133
20		C		2.0844		2.4872		2.4939		C.ar		1		UNL1		0.3886
21		F		2.6283		2.6148		3.7226		F		1		UNL1		-0.2986
22		C		2.6855		1.6081		1.5961		C.ar		1		UNL1		-0.2708
23		C		2.1352		1.4645		0.3247		C.ar		1		UNL1		0.3274
24		O		2.6499		0.6475		-0.6488		O.3		1		UNL1		-0.5793
25		C		3.6170		-0.2989		-0.3159		C.ar		1		UNL1		0.2475
26		C		3.2211		-1.4090		0.4706		C.ar		1		UNL1		-0.1490
27		C		4.1234		-2.4030		0.7497		C.ar		1		UNL1		-0.2082
28		C		5.4522		-2.3328		0.2508		C.ar		1		UNL1		0.1552
29		C		6.4015		-3.3514		0.5268		C.ar		1		UNL1		-0.1967
30		C		7.6856		-3.2759		0.0366		C.ar		1		UNL1		-0.1333
31		C		8.0718		-2.1704		-0.7553		C.ar		1		UNL1		-0.1313
32		C		7.1728		-1.1656		-1.0422		C.ar		1		UNL1		-0.1973
33		C		5.8387		-1.2094		-0.5526		C.ar		1		UNL1		0.0586
34		C		4.8905		-0.1692		-0.8358		C.ar		1		UNL1		0.1004
35		C		5.2705		1.0205		-1.6826		C.3		1		UNL1		-0.5426
36		H		-1.8328		-2.5180		0.0409		H		1		UNL1		0.1769
37		H		-1.0301		-0.9829		0.3775		H		1		UNL1		0.1726
38		H		-1.2622		-1.5180		-1.2953		H		1		UNL1		0.1723
39		H		-4.1495		-2.5336		0.3544		H		1		UNL1		0.1682
40		H		-7.5467		-3.6091		-0.6660		H		1		UNL1		0.3559
41		H		-8.1541		-2.2060		-1.3490		H		1		UNL1		0.3513
42		H		-6.5729		0.9425		-0.3248		H		1		UNL1		0.1789
43		H		-4.5418		2.2181		-1.0086		H		1		UNL1		0.1969
44		H		-1.1755		0.7150		-1.0729		H		1		UNL1		0.3668
45		H		-0.2448		3.9382		-1.5513		H		1		UNL1		0.1850
46		H		-0.3462		2.8342		-2.9341		H		1		UNL1		0.1972
47		H		-0.4724		3.6464		0.6274		H		1		UNL1		0.1654
48		H		0.5145		3.8927		2.8952		H		1		UNL1		0.1533
49		H		3.5679		1.0536		1.8908		H		1		UNL1		0.1709
50		H		2.1996		-1.4545		0.8353		H		1		UNL1		0.1417
51		H		3.8289		-3.2598		1.3502		H		1		UNL1		0.1383
52		H		6.0930		-4.1972		1.1369		H		1		UNL1		0.1334
53		H		8.4028		-4.0621		0.2556		H		1		UNL1		0.1339
54		H		9.0862		-2.1131		-1.1408		H		1		UNL1		0.1335
55		H		7.4890		-0.3255		-1.6515		H		1		UNL1		0.1334
56		H		6.0935		1.5868		-1.2295		H		1		UNL1		0.1652
57		H		4.4218		1.6933		-1.8098		H		1		UNL1		0.1809
58		H		5.6042		0.7072		-2.6794		H		1		UNL1		0.1664
@<TRIPOS>BOND
1		46		15		1
2		58		35		1
3		15		45		1
4		15		13		1
5		15		16		1
6		57		35		1
7		35		56		1
8		35		34		1
9		55		32		1
10		14		13		2
11		13		12		1
12		41		6		1
13		16		17		1
14		38		1		1
15		54		31		1
16		12		44		1
17		12		11		1
18		32		31		ar
19		32		33		ar
20		43		10		1
21		6		40		1
22		6		5		1
23		34		33		ar
24		34		25		ar
25		31		30		ar
26		10		11		ar
27		10		9		ar
28		11		2		ar
29		24		25		1
30		24		23		1
31		33		28		ar
32		9		42		1
33		9		4		ar
34		2		1		1
35		2		3		ar
36		25		26		ar
37		1		36		1
38		1		37		1
39		17		23		ar
40		17		18		ar
41		4		3		ar
42		4		5		1
43		30		53		1
44		30		29		ar
45		3		39		1
46		28		29		ar
47		28		27		ar
48		23		22		ar
49		26		27		ar
50		26		50		1
51		5		8		2
52		5		7		2
53		29		52		1
54		47		18		1
55		27		51		1
56		18		19		ar
57		22		49		1
58		22		20		ar
59		19		20		ar
60		19		48		1
61		20		21		1

