@<TRIPOS>MOLECULE
GSX-2011-BMC-4220-12g
 58 61 0 0 0
SMALL
MULLIKEN_CHARGES
****
Gaussian 16 #p B3LYP/6-31G* opt
@<TRIPOS>ATOM
1		C		-1.6927		1.4517		-0.4642		C.3		1		UNL1		-0.5667
2		C		-3.0383		0.7674		-0.3914		C.ar		1		UNL1		0.1538
3		C		-4.1754		1.4914		-0.0414		C.ar		1		UNL1		-0.2110
4		C		-5.4218		0.8685		0.0374		C.ar		1		UNL1		-0.1263
5		S		-6.8558		1.8339		0.4884		S.O2		1		UNL1		1.1641
6		N		-7.3208		2.5580		-0.9815		N.3		1		UNL1		-0.8144
7		O		-7.9071		0.8979		0.9021		O.2		1		UNL1		-0.5284
8		O		-6.4187		2.9415		1.3446		O.2		1		UNL1		-0.5454
9		C		-5.5556		-0.4936		-0.2190		C.ar		1		UNL1		-0.1655
10		C		-4.4342		-1.2381		-0.5738		C.ar		1		UNL1		-0.1563
11		C		-3.1798		-0.6157		-0.6654		C.ar		1		UNL1		0.2984
12		N		-2.0210		-1.3283		-1.0234		N.am		1		UNL1		-0.7267
13		C		-1.8717		-2.6647		-1.2916		C.2		1		UNL1		0.5832
14		O		-2.7522		-3.5119		-1.2879		O.2		1		UNL1		-0.4959
15		C		-0.4359		-3.0443		-1.6873		C.3		1		UNL1		-0.1440
16		O		0.5524		-2.1141		-1.2679		O.3		1		UNL1		-0.5360
17		C		1.0309		-2.2094		0.0234		C.ar		1		UNL1		0.3210
18		C		0.4944		-3.0205		1.0209		C.ar		1		UNL1		-0.1975
19		C		1.0629		-3.0509		2.3005		C.ar		1		UNL1		-0.2132
20		C		2.1619		-2.2496		2.5539		C.ar		1		UNL1		0.3882
21		F		2.7252		-2.2628		3.7805		F		1		UNL1		-0.2984
22		C		2.7136		-1.4134		1.5855		C.ar		1		UNL1		-0.2736
23		C		2.1450		-1.3907		0.3147		C.ar		1		UNL1		0.3290
24		O		2.5851		-0.5931		-0.7112		O.3		1		UNL1		-0.5788
25		C		3.7877		0.0980		-0.5738		C.ar		1		UNL1		0.2673
26		C		3.7576		1.4118		-0.1759		C.ar		1		UNL1		-0.2399
27		C		4.9563		2.1695		-0.1090		C.ar		1		UNL1		0.1296
28		C		4.9762		3.5295		0.2993		C.ar		1		UNL1		-0.1898
29		C		6.1608		4.2294		0.3522		C.ar		1		UNL1		-0.1364
30		C		7.3797		3.6007		-0.0022		C.ar		1		UNL1		-0.1350
31		C		7.3914		2.2835		-0.4030		C.ar		1		UNL1		-0.1948
32		C		6.1875		1.5323		-0.4674		C.ar		1		UNL1		0.1626
33		C		6.1625		0.1734		-0.8813		C.ar		1		UNL1		-0.2895
34		C		4.9961		-0.5607		-0.9447		C.ar		1		UNL1		0.1796
35		C		4.9715		-1.9963		-1.4036		C.3		1		UNL1		-0.5340
36		H		-1.7853		2.5084		-0.2003		H		1		UNL1		0.1762
37		H		-1.2588		1.4058		-1.4725		H		1		UNL1		0.1715
38		H		-0.9654		1.0057		0.2278		H		1		UNL1		0.1746
39		H		-4.0901		2.5487		0.1885		H		1		UNL1		0.1680
40		H		-7.5213		3.5400		-0.7987		H		1		UNL1		0.3558
41		H		-8.1458		2.0874		-1.3498		H		1		UNL1		0.3512
42		H		-6.5251		-0.9710		-0.1283		H		1		UNL1		0.1788
43		H		-4.5142		-2.2971		-0.7752		H		1		UNL1		0.1966
44		H		-1.1565		-0.8028		-1.0720		H		1		UNL1		0.3675
45		H		-0.3788		-3.0576		-2.7809		H		1		UNL1		0.1968
46		H		-0.2337		-4.0568		-1.3248		H		1		UNL1		0.1843
47		H		-0.3756		-3.6358		0.8212		H		1		UNL1		0.1657
48		H		0.6540		-3.6803		3.0826		H		1		UNL1		0.1533
49		H		3.5663		-0.7913		1.8285		H		1		UNL1		0.1704
50		H		2.8066		1.8701		0.0805		H		1		UNL1		0.1395
51		H		4.0391		4.0097		0.5708		H		1		UNL1		0.1331
52		H		6.1646		5.2693		0.6669		H		1		UNL1		0.1343
53		H		8.3076		4.1641		0.0437		H		1		UNL1		0.1339
54		H		8.3258		1.7987		-0.6761		H		1		UNL1		0.1331
55		H		7.1013		-0.2984		-1.1639		H		1		UNL1		0.1316
56		H		4.2549		-2.1374		-2.2204		H		1		UNL1		0.1760
57		H		4.6683		-2.6728		-0.5951		H		1		UNL1		0.1704
58		H		5.9604		-2.3085		-1.7512		H		1		UNL1		0.1579
@<TRIPOS>BOND
1		45		15		1
2		56		35		1
3		58		35		1
4		15		46		1
5		15		13		1
6		15		16		1
7		37		1		1
8		35		34		1
9		35		57		1
10		41		6		1
11		13		14		2
12		13		12		1
13		16		17		1
14		55		33		1
15		44		12		1
16		12		11		1
17		6		40		1
18		6		5		1
19		34		33		ar
20		34		25		ar
21		33		32		ar
22		43		10		1
23		24		25		1
24		24		23		1
25		54		31		1
26		11		10		ar
27		11		2		ar
28		10		9		ar
29		25		26		ar
30		32		31		ar
31		32		27		ar
32		1		2		1
33		1		36		1
34		1		38		1
35		31		30		ar
36		2		3		ar
37		9		42		1
38		9		4		ar
39		26		27		ar
40		26		50		1
41		27		28		ar
42		3		4		ar
43		3		39		1
44		30		53		1
45		30		29		ar
46		17		23		ar
47		17		18		ar
48		4		5		1
49		28		29		ar
50		28		51		1
51		23		22		ar
52		29		52		1
53		5		7		2
54		5		8		2
55		47		18		1
56		18		19		ar
57		22		49		1
58		22		20		ar
59		19		20		ar
60		19		48		1
61		20		21		1

