@<TRIPOS>MOLECULE
GSX-2011-BMC-5117-10k
 37 39 0 0 0
SMALL
MULLIKEN_CHARGES
****
Gaussian 16 #p B3LYP/6-31G* opt
@<TRIPOS>ATOM
1		N		-7.0824		-2.6868		0.6386		N.1		1		UNL1		-0.4800
2		C		-6.2321		-1.9260		0.4082		C.1		1		UNL1		0.2307
3		C		-5.1888		-0.9888		0.1228		C.ar		1		UNL1		0.1316
4		C		-4.0156		-0.9684		0.8944		C.ar		1		UNL1		-0.1531
5		C		-2.9971		-0.0623		0.6256		C.ar		1		UNL1		-0.1600
6		C		-3.1286		0.8471		-0.4395		C.ar		1		UNL1		0.3843
7		N		-2.1743		1.8138		-0.7680		N.pl3		1		UNL1		-0.7587
8		C		-0.8448		1.9487		-0.4356		C.ar		1		UNL1		0.6829
9		N		-0.2912		3.1005		-0.8584		N.ar		1		UNL1		-0.4795
10		C		0.9941		3.2708		-0.5482		C.ar		1		UNL1		0.0701
11		C		1.7444		2.3343		0.1617		C.ar		1		UNL1		-0.1940
12		C		1.0768		1.1663		0.5281		C.ar		1		UNL1		0.3270
13		C		1.7391		0.0070		1.2899		C.3		1		UNL1		0.0127
14		O		0.8009		-1.0074		1.5564		O.3		1		UNL1		-0.6495
15		C		2.9416		-0.5462		0.5222		C.ar		1		UNL1		0.0739
16		C		2.8126		-1.6696		-0.2982		C.ar		1		UNL1		-0.2471
17		C		3.9230		-2.1554		-0.9771		C.ar		1		UNL1		0.3904
18		F		3.7793		-3.2400		-1.7670		F		1		UNL1		-0.2960
19		C		5.1789		-1.5687		-0.8645		C.ar		1		UNL1		-0.1978
20		C		5.3203		-0.4528		-0.0398		C.ar		1		UNL1		-0.1916
21		C		4.2063		0.0304		0.6330		C.ar		1		UNL1		0.3314
22		F		4.3560		1.1225		1.4344		F		1		UNL1		-0.3046
23		N		-0.2137		0.9727		0.2343		N.ar		1		UNL1		-0.5940
24		C		-4.3097		0.8312		-1.2070		C.ar		1		UNL1		-0.1995
25		C		-5.3256		-0.0697		-0.9321		C.ar		1		UNL1		-0.1389
26		H		-3.9067		-1.6652		1.7193		H		1		UNL1		0.1650
27		H		-2.1110		-0.0490		1.2433		H		1		UNL1		0.1718
28		H		-2.4877		2.5697		-1.3640		H		1		UNL1		0.3510
29		H		1.4443		4.2035		-0.8837		H		1		UNL1		0.1619
30		H		2.7840		2.5022		0.4097		H		1		UNL1		0.1684
31		H		2.1054		0.4111		2.2443		H		1		UNL1		0.1774
32		H		0.0030		-0.7643		1.0448		H		1		UNL1		0.4280
33		H		1.8576		-2.1749		-0.3797		H		1		UNL1		0.1668
34		H		6.0210		-1.9840		-1.4073		H		1		UNL1		0.1572
35		H		6.2783		0.0388		0.0920		H		1		UNL1		0.1573
36		H		-4.4211		1.5310		-2.0316		H		1		UNL1		0.1422
37		H		-6.2281		-0.0717		-1.5346		H		1		UNL1		0.1621
@<TRIPOS>BOND
1		36		24		1
2		18		17		1
3		37		25		1
4		34		19		1
5		28		7		1
6		24		25		ar
7		24		6		ar
8		17		19		ar
9		17		16		ar
10		25		3		ar
11		29		10		1
12		19		20		ar
13		9		10		ar
14		9		8		ar
15		7		6		1
16		7		8		1
17		10		11		ar
18		6		5		ar
19		8		23		ar
20		33		16		1
21		16		15		ar
22		20		35		1
23		20		21		ar
24		3		2		1
25		3		4		ar
26		11		30		1
27		11		12		ar
28		23		12		ar
29		2		1		3
30		15		21		ar
31		15		13		1
32		12		13		1
33		5		4		ar
34		5		27		1
35		21		22		1
36		4		26		1
37		32		14		1
38		13		14		1
39		13		31		1

