@<TRIPOS>MOLECULE
GSX-2011-BMC-4220-12b
 55 58 0 0 0
SMALL
MULLIKEN_CHARGES
****
Gaussian 16 #p B3LYP/6-31G* opt
@<TRIPOS>ATOM
1		C		1.2763		-0.8838		-0.0930		C.3		1		UNL1		-0.5641
2		C		2.6263		-0.2102		-0.0043		C.ar		1		UNL1		0.1518
3		C		3.7920		-0.9746		0.0237		C.ar		1		UNL1		-0.2293
4		C		5.0458		-0.3679		0.1198		C.ar		1		UNL1		-0.1431
5		S		6.5233		-1.3862		0.1156		S.O2		1		UNL1		1.1604
6		N		7.0412		-1.5069		-1.4881		N.3		1		UNL1		-0.7852
7		O		7.5751		-0.6410		0.8054		O.2		1		UNL1		-0.5271
8		O		6.1247		-2.7412		0.4960		O.2		1		UNL1		-0.5297
9		C		5.1567		1.0197		0.2031		C.ar		1		UNL1		-0.1740
10		C		4.0089		1.8052		0.1723		C.ar		1		UNL1		-0.1534
11		C		2.7462		1.1996		0.0643		C.ar		1		UNL1		0.2968
12		N		1.5589		1.9519		0.0321		N.am		1		UNL1		-0.7405
13		C		1.3989		3.3115		0.0610		C.2		1		UNL1		0.5828
14		O		2.2835		4.1519		0.1225		O.2		1		UNL1		-0.4964
15		C		-0.0627		3.7707		0.0125		C.3		1		UNL1		-0.1143
16		O		-0.9179		2.6452		-0.0868		O.3		1		UNL1		-0.5501
17		C		-2.2756		2.8249		-0.1225		C.ar		1		UNL1		0.3512
18		C		-2.9206		4.0584		-0.0819		C.ar		1		UNL1		-0.2021
19		C		-4.3185		4.1321		-0.1215		C.ar		1		UNL1		-0.2101
20		C		-5.0421		2.9553		-0.2076		C.ar		1		UNL1		0.3879
21		F		-6.3902		3.0065		-0.2523		F		1		UNL1		-0.2984
22		C		-4.4277		1.7056		-0.2571		C.ar		1		UNL1		-0.2649
23		C		-3.0387		1.6401		-0.2082		C.ar		1		UNL1		0.3179
24		O		-2.3227		0.4695		-0.2902		O.3		1		UNL1		-0.5869
25		C		-2.9295		-0.7326		0.0557		C.ar		1		UNL1		0.3351
26		C		-3.4078		-0.9339		1.3748		C.ar		1		UNL1		-0.1572
27		C		-3.9221		-2.1596		1.7254		C.ar		1		UNL1		-0.2016
28		C		-3.9779		-3.2311		0.7921		C.ar		1		UNL1		0.1439
29		C		-4.5013		-4.5064		1.1325		C.ar		1		UNL1		-0.1921
30		C		-4.5387		-5.5235		0.2051		C.ar		1		UNL1		-0.1339
31		C		-4.0525		-5.3091		-1.1078		C.ar		1		UNL1		-0.1345
32		C		-3.5374		-4.0844		-1.4697		C.ar		1		UNL1		-0.1896
33		C		-3.4844		-3.0148		-0.5363		C.ar		1		UNL1		0.1303
34		C		-2.9645		-1.7379		-0.8801		C.ar		1		UNL1		-0.2500
35		H		1.3916		-1.9697		-0.1416		H		1		UNL1		0.1751
36		H		0.6460		-0.6633		0.7786		H		1		UNL1		0.1779
37		H		0.7134		-0.5733		-0.9833		H		1		UNL1		0.1734
38		H		3.7264		-2.0579		-0.0051		H		1		UNL1		0.1716
39		H		6.3603		-1.9806		-2.0769		H		1		UNL1		0.3449
40		H		7.3181		-0.6059		-1.8704		H		1		UNL1		0.3467
41		H		6.1319		1.4825		0.3147		H		1		UNL1		0.1761
42		H		4.0728		2.8822		0.2391		H		1		UNL1		0.1976
43		H		0.6881		1.4368		-0.0255		H		1		UNL1		0.3845
44		H		-0.2655		4.3487		0.9239		H		1		UNL1		0.1826
45		H		-0.1784		4.4397		-0.8502		H		1		UNL1		0.1828
46		H		-2.3446		4.9742		-0.0148		H		1		UNL1		0.1545
47		H		-4.8330		5.0856		-0.0857		H		1		UNL1		0.1524
48		H		-5.0291		0.8080		-0.3356		H		1		UNL1		0.1711
49		H		-3.3545		-0.1202		2.0911		H		1		UNL1		0.1496
50		H		-4.2874		-2.3252		2.7359		H		1		UNL1		0.1428
51		H		-4.8731		-4.6667		2.1417		H		1		UNL1		0.1358
52		H		-4.9413		-6.4951		0.4772		H		1		UNL1		0.1366
53		H		-4.0873		-6.1187		-1.8315		H		1		UNL1		0.1368
54		H		-3.1643		-3.9196		-2.4776		H		1		UNL1		0.1346
55		H		-2.5869		-1.5516		-1.8812		H		1		UNL1		0.1432
@<TRIPOS>BOND
1		54		32		1
2		39		6		1
3		55		34		1
4		40		6		1
5		53		31		1
6		6		5		1
7		32		31		ar
8		32		33		ar
9		31		30		ar
10		37		1		1
11		34		33		ar
12		34		25		ar
13		45		15		1
14		33		28		ar
15		48		22		1
16		24		23		1
17		24		25		1
18		22		23		ar
19		22		20		ar
20		21		20		1
21		23		17		ar
22		20		19		ar
23		35		1		1
24		17		16		1
25		17		18		ar
26		19		47		1
27		19		18		ar
28		1		2		1
29		1		36		1
30		16		15		1
31		18		46		1
32		43		12		1
33		38		3		1
34		2		3		ar
35		2		11		ar
36		15		13		1
37		15		44		1
38		3		4		ar
39		12		13		1
40		12		11		1
41		25		26		ar
42		13		14		2
43		11		10		ar
44		5		4		1
45		5		8		2
46		5		7		2
47		4		9		ar
48		10		9		ar
49		10		42		1
50		9		41		1
51		30		52		1
52		30		29		ar
53		28		29		ar
54		28		27		ar
55		29		51		1
56		26		27		ar
57		26		49		1
58		27		50		1

