@<TRIPOS>MOLECULE
GSX-2011-BMC-4220-12l
 55 58 0 0 0
SMALL
MULLIKEN_CHARGES
****
Gaussian 16 #p B3LYP/6-31G* opt
@<TRIPOS>ATOM
1		C		-1.7026		-0.7994		1.9790		C.3		1		UNL1		-0.5375
2		C		-2.8051		-0.4912		0.9982		C.ar		1		UNL1		0.1947
3		C		-3.2200		0.8353		0.8102		C.ar		1		UNL1		-0.2175
4		C		-4.2206		1.1466		-0.1052		C.ar		1		UNL1		-0.1168
5		S		-4.7287		2.8575		-0.3051		S.O2		1		UNL1		1.1729
6		N		-6.0414		3.0005		0.7648		N.3		1		UNL1		-0.8162
7		O		-5.2750		3.0033		-1.6575		O.2		1		UNL1		-0.5372
8		O		-3.6475		3.7061		0.2033		O.2		1		UNL1		-0.5275
9		C		-4.8389		0.1609		-0.8748		C.ar		1		UNL1		-0.1575
10		C		-4.4396		-1.1584		-0.6938		C.ar		1		UNL1		-0.1252
11		C		-3.4339		-1.4862		0.2266		C.ar		1		UNL1		0.1851
12		N		-3.0884		-2.8702		0.3902		N.am		1		UNL1		-0.6745
13		C		-2.2514		-3.6327		-0.3857		C.2		1		UNL1		0.5665
14		O		-2.1939		-4.8495		-0.2607		O.2		1		UNL1		-0.4898
15		C		-1.3647		-2.8815		-1.3920		C.3		1		UNL1		-0.1248
16		O		-0.3341		-2.1301		-0.7592		O.3		1		UNL1		-0.5217
17		C		0.8100		-2.7777		-0.3616		C.ar		1		UNL1		0.3246
18		C		0.9873		-4.1628		-0.3251		C.ar		1		UNL1		-0.2052
19		C		2.2115		-4.7110		0.0716		C.ar		1		UNL1		-0.2107
20		C		3.2394		-3.8610		0.4460		C.ar		1		UNL1		0.3842
21		F		4.4235		-4.3795		0.8385		F		1		UNL1		-0.3011
22		C		3.0868		-2.4782		0.4497		C.ar		1		UNL1		-0.2527
23		C		1.8703		-1.9396		0.0394		C.ar		1		UNL1		0.3077
24		O		1.6085		-0.5854		0.0787		O.3		1		UNL1		-0.5659
25		C		2.5869		0.3134		-0.2753		C.ar		1		UNL1		0.3565
26		C		3.3373		0.1363		-1.4647		C.ar		1		UNL1		-0.1555
27		C		4.2544		1.0812		-1.8482		C.ar		1		UNL1		-0.1994
28		C		4.4664		2.2539		-1.0759		C.ar		1		UNL1		0.1491
29		C		5.4106		3.2397		-1.4655		C.ar		1		UNL1		-0.1941
30		C		5.6048		4.3738		-0.7109		C.ar		1		UNL1		-0.1318
31		C		4.8554		4.5679		0.4726		C.ar		1		UNL1		-0.1324
32		C		3.9297		3.6337		0.8822		C.ar		1		UNL1		-0.1952
33		C		3.7064		2.4527		0.1255		C.ar		1		UNL1		0.1332
34		C		2.7700		1.4430		0.5002		C.ar		1		UNL1		-0.2229
35		CL		1.8218		1.6239		1.9648		Cl		1		UNL1		0.0067
36		H		-0.7255		-0.6940		1.4946		H		1		UNL1		0.2210
37		H		-1.7320		-0.1051		2.8244		H		1		UNL1		0.1590
38		H		-1.7733		-1.8205		2.3616		H		1		UNL1		0.1603
39		H		-2.7444		1.6328		1.3724		H		1		UNL1		0.1813
40		H		-5.8013		3.6508		1.5107		H		1		UNL1		0.3569
41		H		-6.8552		3.3256		0.2462		H		1		UNL1		0.3583
42		H		-5.6022		0.4247		-1.5983		H		1		UNL1		0.1788
43		H		-4.9045		-1.9554		-1.2670		H		1		UNL1		0.1496
44		H		-3.6342		-3.4225		1.0446		H		1		UNL1		0.3435
45		H		-1.9464		-2.1447		-1.9513		H		1		UNL1		0.1770
46		H		-0.9538		-3.6210		-2.0859		H		1		UNL1		0.1751
47		H		0.1660		-4.8236		-0.5771		H		1		UNL1		0.1901
48		H		2.3591		-5.7849		0.0997		H		1		UNL1		0.1514
49		H		3.9009		-1.8382		0.7695		H		1		UNL1		0.1666
50		H		3.1633		-0.7537		-2.0601		H		1		UNL1		0.1557
51		H		4.8258		0.9441		-2.7624		H		1		UNL1		0.1425
52		H		5.9793		3.0789		-2.3782		H		1		UNL1		0.1352
53		H		6.3301		5.1205		-1.0212		H		1		UNL1		0.1353
54		H		5.0101		5.4652		1.0655		H		1		UNL1		0.1369
55		H		3.3595		3.7929		1.7900		H		1		UNL1		0.1573
@<TRIPOS>BOND
1		51		27		1
2		52		29		1
3		46		15		1
4		50		26		1
5		45		15		1
6		27		26		ar
7		27		28		ar
8		7		5		2
9		42		9		1
10		29		28		ar
11		29		30		ar
12		26		25		ar
13		15		16		1
14		15		13		1
15		43		10		1
16		28		33		ar
17		53		30		1
18		9		10		ar
19		9		4		ar
20		16		17		1
21		30		31		ar
22		10		11		ar
23		47		18		1
24		13		14		2
25		13		12		1
26		17		18		ar
27		17		23		ar
28		18		19		ar
29		5		4		1
30		5		8		2
31		5		6		1
32		25		24		1
33		25		34		ar
34		4		3		ar
35		23		24		1
36		23		22		ar
37		19		48		1
38		19		20		ar
39		33		34		ar
40		33		32		ar
41		11		12		1
42		11		2		ar
43		41		6		1
44		12		44		1
45		20		22		ar
46		20		21		1
47		22		49		1
48		31		32		ar
49		31		54		1
50		34		35		1
51		6		40		1
52		3		2		ar
53		3		39		1
54		32		55		1
55		2		1		1
56		36		1		1
57		1		38		1
58		1		37		1

