@<TRIPOS>MOLECULE
GSX-2011-BMC-5117-10u
 40 42 0 0 0
SMALL
MULLIKEN_CHARGES
****
Gaussian 16 #p B3LYP/6-31G* opt
@<TRIPOS>ATOM
1		C		-2.4994		2.4816		-0.9198		C.3		1		UNL1		-0.5354
2		C		-1.2849		1.7284		-0.4415		C.ar		1		UNL1		0.1141
3		C		-0.0266		1.9731		-0.9900		C.ar		1		UNL1		0.0170
4		N		1.0984		1.3396		-0.6385		N.ar		1		UNL1		-0.4720
5		C		0.9581		0.4110		0.3111		C.ar		1		UNL1		0.6882
6		N		2.0447		-0.3174		0.7538		N.pl3		1		UNL1		-0.7664
7		C		3.3927		-0.3047		0.3974		C.ar		1		UNL1		0.3830
8		C		4.2361		-1.2094		1.0750		C.ar		1		UNL1		-0.2063
9		C		5.5898		-1.2713		0.7908		C.ar		1		UNL1		-0.1404
10		C		6.1465		-0.4258		-0.1854		C.ar		1		UNL1		0.1308
11		C		7.5445		-0.4839		-0.4842		C.1		1		UNL1		0.2270
12		N		8.6823		-0.5323		-0.7262		N.1		1		UNL1		-0.4849
13		C		5.3067		0.4753		-0.8605		C.ar		1		UNL1		-0.1532
14		C		3.9477		0.5425		-0.5802		C.ar		1		UNL1		-0.1613
15		N		-0.1937		0.0848		0.9331		N.ar		1		UNL1		-0.5641
16		C		-1.2998		0.7325		0.5604		C.ar		1		UNL1		0.2613
17		C		-2.5623		0.3147		1.3174		C.3		1		UNL1		0.0285
18		O		-3.2363		1.4396		1.8759		O.3		1		UNL1		-0.6286
19		C		-3.5385		-0.4623		0.4423		C.ar		1		UNL1		0.1000
20		C		-3.0877		-1.5762		-0.2803		C.ar		1		UNL1		-0.1703
21		C		-3.9773		-2.3190		-1.0554		C.ar		1		UNL1		-0.1355
22		C		-5.3265		-1.9658		-1.1248		C.ar		1		UNL1		-0.1942
23		C		-5.7505		-0.8608		-0.3985		C.ar		1		UNL1		0.3878
24		F		-7.0523		-0.5053		-0.4516		F		1		UNL1		-0.2983
25		C		-4.8873		-0.1027		0.3851		C.ar		1		UNL1		-0.2499
26		H		-2.2174		3.2053		-1.6915		H		1		UNL1		0.1531
27		H		-2.9906		3.0145		-0.1013		H		1		UNL1		0.1835
28		H		-3.2469		1.8051		-1.3488		H		1		UNL1		0.1803
29		H		0.0843		2.7289		-1.7673		H		1		UNL1		0.1494
30		H		1.7812		-0.9780		1.4737		H		1		UNL1		0.3445
31		H		3.8171		-1.8685		1.8320		H		1		UNL1		0.1357
32		H		6.2251		-1.9731		1.3214		H		1		UNL1		0.1578
33		H		5.7280		1.1316		-1.6156		H		1		UNL1		0.1582
34		H		3.3086		1.2385		-1.1039		H		1		UNL1		0.1890
35		H		-2.2169		-0.3541		2.1185		H		1		UNL1		0.1627
36		H		-2.6568		1.8177		2.5550		H		1		UNL1		0.4051
37		H		-2.0413		-1.8636		-0.2309		H		1		UNL1		0.1426
38		H		-3.6196		-3.1811		-1.6112		H		1		UNL1		0.1416
39		H		-6.0391		-2.5260		-1.7209		H		1		UNL1		0.1480
40		H		-5.2631		0.7475		0.9404		H		1		UNL1		0.1716
@<TRIPOS>BOND
1		29		3		1
2		39		22		1
3		26		1		1
4		33		13		1
5		38		21		1
6		28		1		1
7		22		21		ar
8		22		23		ar
9		34		14		1
10		21		20		ar
11		3		4		ar
12		3		2		ar
13		1		2		1
14		1		27		1
15		13		14		ar
16		13		10		ar
17		12		11		3
18		4		5		ar
19		14		7		ar
20		11		10		1
21		24		23		1
22		2		16		ar
23		23		25		ar
24		20		37		1
25		20		19		ar
26		10		9		ar
27		5		6		1
28		5		15		ar
29		25		19		ar
30		25		40		1
31		7		6		1
32		7		8		ar
33		19		17		1
34		16		15		ar
35		16		17		1
36		6		30		1
37		9		8		ar
38		9		32		1
39		8		31		1
40		17		18		1
41		17		35		1
42		18		36		1

