@<TRIPOS>MOLECULE
GSX-2019-EJMC277-11-33d
 54 57 0 0 0
SMALL
MULLIKEN_CHARGES
****
Gaussian 16 #p B3LYP/6-31G* opt
@<TRIPOS>ATOM
1		C		2.8645		4.7312		0.4537		C.ar		1		UNL1		-0.1439
2		C		1.7769		4.2853		1.1883		C.ar		1		UNL1		-0.1629
3		C		1.2191		3.0530		0.8236		C.ar		1		UNL1		0.3655
4		C		1.7228		2.2718		-0.2514		C.ar		1		UNL1		0.0705
5		C		2.8233		2.7571		-0.9859		C.ar		1		UNL1		-0.1913
6		C		3.3793		3.9737		-0.6217		C.ar		1		UNL1		-0.1420
7		N		0.1548		2.3732		1.3590		N.ar		1		UNL1		-0.7200
8		C		-0.0651		1.1946		0.7006		C.ar		1		UNL1		0.2611
9		C		0.8905		1.0931		-0.3158		C.ar		1		UNL1		-0.2976
10		S		1.2140		-0.2456		-1.4276		S.O2		1		UNL1		1.1721
11		O		1.8969		0.3062		-2.6069		O.2		1		UNL1		-0.5504
12		O		-0.0289		-1.0292		-1.6122		O.2		1		UNL1		-0.5888
13		C		2.3895		-1.3043		-0.5635		C.ar		1		UNL1		-0.1299
14		C		1.9465		-2.0955		0.5007		C.ar		1		UNL1		-0.2022
15		C		2.8545		-2.9188		1.1668		C.ar		1		UNL1		0.1808
16		C		4.1925		-2.9230		0.7385		C.ar		1		UNL1		-0.2217
17		C		4.6400		-2.1398		-0.3277		C.ar		1		UNL1		0.1808
18		C		3.7138		-1.3155		-0.9853		C.ar		1		UNL1		-0.1967
19		C		6.0838		-2.1684		-0.7723		C.3		1		UNL1		-0.5301
20		C		2.4131		-3.8005		2.3118		C.3		1		UNL1		-0.5308
21		C		-1.2286		0.4288		1.2717		C.2		1		UNL1		0.5936
22		O		-1.7397		0.8699		2.3105		O.2		1		UNL1		-0.5736
23		N		-1.6463		-0.6836		0.6370		N.am		1		UNL1		-0.6328
24		C		-2.8193		-1.4352		1.0988		C.3		1		UNL1		-0.2423
25		C		-4.1214		-1.0017		0.4562		C.ar		1		UNL1		0.1651
26		C		-4.6908		-1.7341		-0.5907		C.ar		1		UNL1		-0.1891
27		C		-5.8820		-1.3354		-1.1921		C.ar		1		UNL1		-0.1716
28		C		-6.5439		-0.1755		-0.7587		C.ar		1		UNL1		0.3122
29		C		-5.9753		0.5644		0.2936		C.ar		1		UNL1		-0.1730
30		C		-4.7867		0.1554		0.8875		C.ar		1		UNL1		-0.1906
31		N		-7.7093		0.2650		-1.3932		N.pl3		1		UNL1		-0.7872
32		H		3.3255		5.6821		0.7054		H		1		UNL1		0.1321
33		H		1.3704		4.8644		2.0124		H		1		UNL1		0.1359
34		H		3.2089		2.1935		-1.8267		H		1		UNL1		0.1698
35		H		4.2266		4.3598		-1.1813		H		1		UNL1		0.1306
36		H		-0.4385		2.6200		2.1430		H		1		UNL1		0.3563
37		H		0.9035		-2.0737		0.8020		H		1		UNL1		0.1551
38		H		4.9057		-3.5625		1.2555		H		1		UNL1		0.1259
39		H		4.0133		-0.6974		-1.8256		H		1		UNL1		0.1723
40		H		6.1697		-2.4681		-1.8237		H		1		UNL1		0.1717
41		H		6.6722		-2.8707		-0.1741		H		1		UNL1		0.1580
42		H		6.5478		-1.1788		-0.6808		H		1		UNL1		0.1701
43		H		2.4492		-4.8611		2.0325		H		1		UNL1		0.1701
44		H		1.3880		-3.5729		2.6192		H		1		UNL1		0.1634
45		H		3.0631		-3.6745		3.1855		H		1		UNL1		0.1656
46		H		-1.2582		-0.8895		-0.2840		H		1		UNL1		0.4053
47		H		-2.8628		-1.3116		2.1835		H		1		UNL1		0.1833
48		H		-2.6289		-2.4919		0.8833		H		1		UNL1		0.1520
49		H		-4.1988		-2.6383		-0.9442		H		1		UNL1		0.1233
50		H		-6.3028		-1.9218		-2.0061		H		1		UNL1		0.1168
51		H		-6.4737		1.4663		0.6431		H		1		UNL1		0.1169
52		H		-4.3598		0.7404		1.6977		H		1		UNL1		0.1539
53		H		-8.3070		0.8529		-0.8254		H		1		UNL1		0.3194
54		H		-8.2408		-0.4598		-1.8596		H		1		UNL1		0.3192
@<TRIPOS>BOND
1		11		10		2
2		50		27		1
3		54		31		1
4		34		5		1
5		39		18		1
6		40		19		1
7		12		10		2
8		10		13		1
9		10		9		1
10		31		53		1
11		31		28		1
12		27		28		ar
13		27		26		ar
14		35		6		1
15		5		6		ar
16		5		4		ar
17		18		13		ar
18		18		17		ar
19		49		26		1
20		19		42		1
21		19		17		1
22		19		41		1
23		28		29		ar
24		6		1		ar
25		26		25		ar
26		13		14		ar
27		17		16		ar
28		9		4		ar
29		9		8		ar
30		46		23		1
31		4		3		ar
32		29		51		1
33		29		30		ar
34		1		32		1
35		1		2		ar
36		25		30		ar
37		25		24		1
38		14		37		1
39		14		15		ar
40		23		24		1
41		23		21		1
42		8		21		1
43		8		7		ar
44		16		15		ar
45		16		38		1
46		3		2		ar
47		3		7		ar
48		48		24		1
49		30		52		1
50		24		47		1
51		15		20		1
52		2		33		1
53		21		22		2
54		7		36		1
55		43		20		1
56		20		44		1
57		20		45		1

