@<TRIPOS>MOLECULE
GSX-2019-EJMC277-5-15b1
 64 66 0 0 0
SMALL
MULLIKEN_CHARGES

@<TRIPOS>ATOM
1		C		4.5788		4.4471		0.0197		C.3		1		UNL1		-0.5343
2		C		2.6935		3.2306		-1.1539		C.ar		1		UNL1		-0.2758
3		C		1.5384		2.4421		-1.1647		C.ar		1		UNL1		0.1922
4		C		1.0676		1.9806		0.0675		C.ar		1		UNL1		0.1999
5		C		1.6776		2.2891		1.2858		C.ar		1		UNL1		0.1921
6		C		2.8307		3.0805		1.2403		C.ar		1		UNL1		-0.2781
7		C		3.3542		3.5609		0.0348		C.ar		1		UNL1		0.2097
8		C		-0.1399		-0.0689		0.0135		C.ar		1		UNL1		0.5538
9		C		-1.3807		-0.7635		-0.0228		C.ar		1		UNL1		0.0040
10		C		-1.2442		-2.1599		-0.0552		C.ar		1		UNL1		0.0138
11		N		-0.0881		-2.8145		-0.0679		N.ar		1		UNL1		-0.5017
12		C		1.0121		-2.0314		-0.0447		C.ar		1		UNL1		0.6991
13		N		1.0326		-0.6948		0.0007		N.ar		1		UNL1		-0.5531
14		C		5.3210		-0.7141		-0.0253		C.ar		1		UNL1		-0.1592
15		C		3.9609		-0.9985		-0.0352		C.ar		1		UNL1		-0.1632
16		C		3.5297		-2.3371		-0.0554		C.ar		1		UNL1		0.3749
17		C		4.4906		-3.3677		-0.0665		C.ar		1		UNL1		-0.2027
18		C		5.8451		-3.0775		-0.0572		C.ar		1		UNL1		-0.1407
19		C		6.2794		-1.7404		-0.0360		C.ar		1		UNL1		0.1339
20		O		-0.1479		1.2665		0.0820		O.3		1		UNL1		-0.5245
21		N		2.1885		-2.7354		-0.0681		N.pl3		1		UNL1		-0.7618
22		C		7.6769		-1.4316		-0.0256		C.1		1		UNL1		0.2296
23		N		8.8136		-1.1807		-0.0170		N.1		1		UNL1		-0.4821
24		C		-2.7044		-0.0936		-0.0685		C.2		1		UNL1		0.3832
25		C		0.8236		2.0928		-2.4464		C.3		1		UNL1		-0.5406
26		C		1.1145		1.7815		2.5897		C.3		1		UNL1		-0.5393
27		C		-3.9620		-0.9688		0.0379		C.3		1		UNL1		-0.1841
28		O		-2.8267		1.1121		-0.2273		O.2		1		UNL1		-0.4627
29		N		-5.1220		-0.1480		0.3037		N.3		1		UNL1		-0.5760
30		C		-6.3830		-0.7386		-0.1255		C.3		1		UNL1		-0.1203
31		C		-7.5421		0.2007		0.2235		C.3		1		UNL1		-0.1202
32		N		-8.8272		-0.2465		-0.3123		N.3		1		UNL1		-0.3712
33		C		-9.8144		0.8248		-0.2838		C.3		1		UNL1		-0.2930
34		C		-9.3367		-1.4325		0.3651		C.3		1		UNL1		-0.3006
35		H		5.2267		4.2507		0.8804		H		1		UNL1		0.1593
36		H		4.3015		5.5090		0.0570		H		1		UNL1		0.1695
37		H		5.1703		4.2993		-0.8901		H		1		UNL1		0.1599
38		H		3.0810		3.6004		-2.1010		H		1		UNL1		0.1219
39		H		3.3264		3.3323		2.1755		H		1		UNL1		0.1221
40		H		-2.1290		-2.7910		-0.0840		H		1		UNL1		0.1657
41		H		5.6452		0.3214		-0.0093		H		1		UNL1		0.1632
42		H		3.2366		-0.1974		-0.0274		H		1		UNL1		0.2107
43		H		4.1653		-4.4053		-0.0821		H		1		UNL1		0.1404
44		H		6.5737		-3.8815		-0.0657		H		1		UNL1		0.1606
45		H		2.0208		-3.7339		-0.0956		H		1		UNL1		0.3524
46		H		-0.2535		2.2715		-2.3608		H		1		UNL1		0.1866
47		H		0.9560		1.0331		-2.7004		H		1		UNL1		0.1643
48		H		1.2103		2.6851		-3.2806		H		1		UNL1		0.1575
49		H		1.6264		2.2428		3.4390		H		1		UNL1		0.1583
50		H		1.2327		0.6941		2.6775		H		1		UNL1		0.1670
51		H		0.0440		1.9986		2.6729		H		1		UNL1		0.1791
52		H		-3.8374		-1.7210		0.8296		H		1		UNL1		0.1574
53		H		-4.0339		-1.5373		-0.9151		H		1		UNL1		0.1378
54		H		-4.9690		0.7608		-0.1311		H		1		UNL1		0.3192
55		H		-6.4996		-1.6978		0.3954		H		1		UNL1		0.1349
56		H		-6.4194		-0.9606		-1.2094		H		1		UNL1		0.1238
57		H		-7.3265		1.1819		-0.2200		H		1		UNL1		0.1324
58		H		-7.5705		0.3497		1.3205		H		1		UNL1		0.1246
59		H		-10.7441		0.4800		-0.7501		H		1		UNL1		0.1466
60		H		-9.4468		1.6839		-0.8554		H		1		UNL1		0.1490
61		H		-10.0569		1.1732		0.7402		H		1		UNL1		0.1179
62		H		-10.2828		-1.7364		-0.0958		H		1		UNL1		0.1480
63		H		-9.5194		-1.2701		1.4467		H		1		UNL1		0.1179
64		H		-8.6362		-2.2662		0.2618		H		1		UNL1		0.1512
@<TRIPOS>BOND
1		48		25		1
2		47		25		1
3		25		46		1
4		25		3		1
5		38		2		1
6		56		30		1
7		3		2		ar
8		3		4		ar
9		2		7		ar
10		53		27		1
11		37		1		1
12		60		33		1
13		59		33		1
14		32		33		1
15		32		31		1
16		32		34		1
17		33		61		1
18		28		24		2
19		57		31		1
20		54		29		1
21		30		31		1
22		30		29		1
23		30		55		1
24		62		34		1
25		45		21		1
26		40		10		1
27		43		17		1
28		24		9		1
29		24		27		1
30		21		16		1
31		21		12		1
32		11		10		ar
33		11		12		ar
34		17		18		ar
35		17		16		ar
36		44		18		1
37		18		19		ar
38		16		15		ar
39		10		9		ar
40		12		13		ar
41		19		22		1
42		19		14		ar
43		15		42		1
44		15		14		ar
45		22		23		3
46		14		41		1
47		9		8		ar
48		13		8		ar
49		8		20		1
50		1		7		1
51		1		36		1
52		1		35		1
53		7		6		ar
54		27		29		1
55		27		52		1
56		4		20		1
57		4		5		ar
58		31		58		1
59		64		34		1
60		34		63		1
61		6		5		ar
62		6		39		1
63		5		26		1
64		26		51		1
65		26		50		1
66		26		49		1

