@<TRIPOS>MOLECULE
GSX-2011-BMC-7093-1n
 41 43 0 0 0
SMALL
MULLIKEN_CHARGES

@<TRIPOS>ATOM
1		C		0.1620		4.0265		0.2625		C.3		1		UNL1		-0.5142
2		C		0.5735		2.5929		0.0585		C.ar		1		UNL1		0.3448
3		C		1.8972		2.2225		-0.0754		C.ar		1		UNL1		-0.2663
4		C		2.1697		0.8417		-0.2587		C.ar		1		UNL1		0.6036
5		N		3.4463		0.3968		-0.4083		N.pl3		1		UNL1		-0.6742
6		C		3.8254		-1.0059		-0.5924		C.3		1		UNL1		0.0597
7		C		5.2939		-1.0950		-1.0554		C.3		1		UNL1		-0.3081
8		C		6.1546		-1.1252		0.2420		C.3		1		UNL1		-0.2781
9		C		5.1541		-1.3539		1.4108		C.3		1		UNL1		-0.2748
10		C		3.8399		-1.7900		0.7368		C.3		1		UNL1		-0.2629
11		N		1.1809		-0.0608		-0.2998		N.ar		1		UNL1		-0.6098
12		C		-0.0693		0.4230		-0.1634		C.ar		1		UNL1		0.7003
13		N		-1.0302		-0.5734		-0.2240		N.pl3		1		UNL1		-0.7739
14		C		-2.4181		-0.5486		-0.1249		C.ar		1		UNL1		0.3846
15		C		-3.1811		0.6183		0.0755		C.ar		1		UNL1		-0.1598
16		C		-4.5644		0.5332		0.1626		C.ar		1		UNL1		-0.1548
17		C		-5.2283		-0.7005		0.0544		C.ar		1		UNL1		0.1290
18		C		-6.6538		-0.7730		0.1465		C.1		1		UNL1		0.2244
19		N		-7.8143		-0.8337		0.2216		N.1		1		UNL1		-0.4895
20		C		-4.4654		-1.8648		-0.1465		C.ar		1		UNL1		-0.1414
21		C		-3.0859		-1.7869		-0.2342		C.ar		1		UNL1		-0.2068
22		N		-0.4361		1.6910		0.0155		N.ar		1		UNL1		-0.5570
23		H		-0.5116		4.3434		-0.5418		H		1		UNL1		0.1755
24		H		-0.3921		4.1288		1.2025		H		1		UNL1		0.1753
25		H		1.0239		4.6992		0.2864		H		1		UNL1		0.1516
26		H		2.6976		2.9547		-0.0417		H		1		UNL1		0.1226
27		H		4.1799		1.0887		-0.3650		H		1		UNL1		0.3254
28		H		3.1298		-1.4428		-1.3139		H		1		UNL1		0.1552
29		H		5.5618		-0.2802		-1.7378		H		1		UNL1		0.1410
30		H		5.4221		-2.0265		-1.6167		H		1		UNL1		0.1538
31		H		6.7171		-0.1948		0.3780		H		1		UNL1		0.1367
32		H		6.8975		-1.9276		0.1893		H		1		UNL1		0.1466
33		H		4.9933		-0.4192		1.9605		H		1		UNL1		0.1401
34		H		5.5173		-2.0885		2.1363		H		1		UNL1		0.1429
35		H		2.9476		-1.5989		1.3385		H		1		UNL1		0.1591
36		H		3.8638		-2.8640		0.5073		H		1		UNL1		0.1337
37		H		-0.6100		-1.4830		-0.3646		H		1		UNL1		0.3401
38		H		-2.6739		1.5686		0.1592		H		1		UNL1		0.1863
39		H		-5.1451		1.4374		0.3175		H		1		UNL1		0.1537
40		H		-4.9621		-2.8259		-0.2328		H		1		UNL1		0.1537
41		H		-2.5073		-2.6948		-0.3895		H		1		UNL1		0.1319
@<TRIPOS>BOND
1		29		7		1
2		30		7		1
3		28		6		1
4		7		6		1
5		7		8		1
6		6		5		1
7		6		10		1
8		23		1		1
9		5		27		1
10		5		4		1
11		41		21		1
12		37		13		1
13		11		4		ar
14		11		12		ar
15		4		3		ar
16		21		20		ar
17		21		14		ar
18		40		20		1
19		13		12		1
20		13		14		1
21		12		22		ar
22		20		17		ar
23		14		15		ar
24		3		26		1
25		3		2		ar
26		22		2		ar
27		17		18		1
28		17		16		ar
29		2		1		1
30		15		38		1
31		15		16		ar
32		18		19		3
33		16		39		1
34		32		8		1
35		8		31		1
36		8		9		1
37		1		25		1
38		1		24		1
39		36		10		1
40		10		35		1
41		10		9		1
42		9		33		1
43		9		34		1

