@<TRIPOS>MOLECULE
GSX-2011-BMC-5117-10i
 37 39 0 0 0
SMALL
MULLIKEN_CHARGES
****
Gaussian 16 #p B3LYP/6-31G* opt
@<TRIPOS>ATOM
1		N		-8.3548		0.6211		-0.7598		N.1		1		UNL1		-0.4852
2		C		-7.2147		0.5519		-0.5341		C.1		1		UNL1		0.2270
3		C		-5.8138		0.4686		-0.2554		C.ar		1		UNL1		0.1309
4		C		-5.0973		-0.7074		-0.5323		C.ar		1		UNL1		-0.1532
5		C		-3.7371		-0.8023		-0.2661		C.ar		1		UNL1		-0.1600
6		C		-3.0555		0.2955		0.2919		C.ar		1		UNL1		0.3832
7		N		-1.6950		0.3057		0.5995		N.pl3		1		UNL1		-0.7658
8		C		-0.7006		-0.6416		0.4658		C.ar		1		UNL1		0.6908
9		N		-0.9803		-1.8473		-0.0501		N.ar		1		UNL1		-0.4763
10		C		0.0570		-2.6862		-0.1421		C.ar		1		UNL1		0.0739
11		C		1.3459		-2.3581		0.2629		C.ar		1		UNL1		-0.2063
12		C		1.5174		-1.0744		0.7901		C.ar		1		UNL1		0.3061
13		C		2.8608		-0.5763		1.3310		C.3		1		UNL1		-0.0103
14		O		3.8308		-1.6090		1.4351		O.3		1		UNL1		-0.6100
15		C		3.4403		0.5747		0.5196		C.ar		1		UNL1		0.2041
16		C		3.4818		1.8437		1.1138		C.ar		1		UNL1		-0.1837
17		C		3.9917		2.9563		0.4490		C.ar		1		UNL1		-0.1264
18		C		4.4847		2.8157		-0.8470		C.ar		1		UNL1		-0.1223
19		C		4.4581		1.5673		-1.4654		C.ar		1		UNL1		-0.1274
20		C		3.9378		0.4630		-0.7886		C.ar		1		UNL1		-0.1213
21		CL		3.9305		-1.0662		-1.6591		Cl		1		UNL1		-0.0060
22		N		0.5018		-0.2174		0.9022		N.ar		1		UNL1		-0.5474
23		C		-3.7751		1.4762		0.5691		C.ar		1		UNL1		-0.2056
24		C		-5.1308		1.5645		0.3013		C.ar		1		UNL1		-0.1404
25		H		-5.6165		-1.5580		-0.9628		H		1		UNL1		0.1580
26		H		-3.1929		-1.7100		-0.4827		H		1		UNL1		0.1892
27		H		-1.3353		1.1656		0.9940		H		1		UNL1		0.3458
28		H		-0.1630		-3.6656		-0.5636		H		1		UNL1		0.1563
29		H		2.1777		-3.0421		0.1585		H		1		UNL1		0.1628
30		H		2.6366		-0.1641		2.3256		H		1		UNL1		0.1494
31		H		3.5122		-2.2457		2.0949		H		1		UNL1		0.3979
32		H		3.1025		1.9526		2.1262		H		1		UNL1		0.1385
33		H		4.0082		3.9230		0.9436		H		1		UNL1		0.1394
34		H		4.8909		3.6704		-1.3804		H		1		UNL1		0.1433
35		H		4.8368		1.4388		-2.4737		H		1		UNL1		0.1580
36		H		-3.2576		2.3305		0.9995		H		1		UNL1		0.1358
37		H		-5.6697		2.4804		0.5207		H		1		UNL1		0.1574
@<TRIPOS>BOND
1		35		19		1
2		21		20		1
3		19		18		ar
4		19		20		ar
5		34		18		1
6		25		4		1
7		18		17		ar
8		20		15		ar
9		1		2		3
10		28		10		1
11		2		3		1
12		4		5		ar
13		4		3		ar
14		26		5		1
15		5		6		ar
16		3		24		ar
17		10		9		ar
18		10		11		ar
19		9		8		ar
20		29		11		1
21		11		12		ar
22		6		23		ar
23		6		7		1
24		24		37		1
25		24		23		ar
26		17		33		1
27		17		16		ar
28		8		7		1
29		8		22		ar
30		15		16		ar
31		15		13		1
32		23		36		1
33		7		27		1
34		12		22		ar
35		12		13		1
36		16		32		1
37		13		14		1
38		13		30		1
39		14		31		1

