@<TRIPOS>MOLECULE
GSX-2011-BMC-5117-10h
 49 51 0 0 0
SMALL
MULLIKEN_CHARGES
****
Gaussian 16 #p B3LYP/6-31G* opt
@<TRIPOS>ATOM
1		C		-7.0925		-1.5154		-0.4633		C.3		1		UNL1		-0.4388
2		C		-6.3079		-0.6392		0.5422		C.3		1		UNL1		0.0167
3		C		-6.4850		-1.2464		1.9469		C.3		1		UNL1		-0.4578
4		C		-6.9082		0.7869		0.5553		C.3		1		UNL1		-0.4388
5		C		-4.8299		-0.5688		0.1168		C.ar		1		UNL1		0.1821
6		C		-3.7789		-1.0229		0.9276		C.ar		1		UNL1		-0.1979
7		C		-2.4489		-0.9477		0.5129		C.ar		1		UNL1		-0.1661
8		C		-2.1198		-0.4137		-0.7344		C.ar		1		UNL1		0.1513
9		C		-0.6700		-0.3035		-1.1738		C.3		1		UNL1		0.0208
10		O		0.0540		-1.4538		-0.7879		O.3		1		UNL1		-0.6495
11		C		0.0201		0.9610		-0.6410		C.ar		1		UNL1		0.3188
12		C		-0.6133		2.1945		-0.5036		C.ar		1		UNL1		-0.1907
13		C		0.1748		3.2430		-0.0285		C.ar		1		UNL1		0.0692
14		N		1.4656		3.1113		0.2729		N.ar		1		UNL1		-0.4814
15		C		1.9839		1.8808		0.0909		C.ar		1		UNL1		0.6860
16		N		3.3201		1.7935		0.4171		N.pl3		1		UNL1		-0.7621
17		C		4.2533		0.7605		0.3125		C.ar		1		UNL1		0.3855
18		C		4.0469		-0.4283		-0.4111		C.ar		1		UNL1		-0.1601
19		C		5.0511		-1.3867		-0.4723		C.ar		1		UNL1		-0.1532
20		C		6.2821		-1.1900		0.1738		C.ar		1		UNL1		0.1312
21		C		7.3093		-2.1840		0.1043		C.1		1		UNL1		0.2297
22		N		8.1467		-2.9906		0.0488		N.1		1		UNL1		-0.4816
23		C		6.4916		0.0029		0.8883		C.ar		1		UNL1		-0.1391
24		C		5.4921		0.9592		0.9550		C.ar		1		UNL1		-0.2021
25		N		1.3183		0.8027		-0.3456		N.ar		1		UNL1		-0.5929
26		C		-3.1576		0.0303		-1.5596		C.ar		1		UNL1		-0.1966
27		C		-4.4842		-0.0413		-1.1383		C.ar		1		UNL1		-0.1899
28		H		-7.0461		-1.1113		-1.4800		H		1		UNL1		0.1425
29		H		-6.6917		-2.5349		-0.4905		H		1		UNL1		0.1502
30		H		-8.1494		-1.5726		-0.1754		H		1		UNL1		0.1395
31		H		-5.9730		-0.6555		2.7149		H		1		UNL1		0.1453
32		H		-7.5495		-1.2722		2.2057		H		1		UNL1		0.1424
33		H		-6.1085		-2.2743		1.9979		H		1		UNL1		0.1481
34		H		-6.8521		1.2623		-0.4296		H		1		UNL1		0.1415
35		H		-7.9644		0.7535		0.8494		H		1		UNL1		0.1403
36		H		-6.3777		1.4292		1.2677		H		1		UNL1		0.1458
37		H		-3.9887		-1.4497		1.9022		H		1		UNL1		0.1298
38		H		-1.6569		-1.3262		1.1517		H		1		UNL1		0.1421
39		H		-0.6555		-0.2088		-2.2754		H		1		UNL1		0.1531
40		H		0.9231		-1.1274		-0.4849		H		1		UNL1		0.4241
41		H		-1.6645		2.3257		-0.7271		H		1		UNL1		0.1627
42		H		-0.2501		4.2340		0.1227		H		1		UNL1		0.1598
43		H		3.6611		2.6638		0.8061		H		1		UNL1		0.3503
44		H		3.1111		-0.5912		-0.9245		H		1		UNL1		0.1743
45		H		4.8830		-2.3002		-1.0337		H		1		UNL1		0.1634
46		H		7.4386		0.1706		1.3908		H		1		UNL1		0.1608
47		H		5.6628		1.8747		1.5163		H		1		UNL1		0.1407
48		H		-2.9307		0.4259		-2.5481		H		1		UNL1		0.1243
49		H		-5.2618		0.3103		-1.8109		H		1		UNL1		0.1264
@<TRIPOS>BOND
1		48		26		1
2		39		9		1
3		49		27		1
4		26		27		ar
5		26		8		ar
6		28		1		1
7		9		10		1
8		9		8		1
9		9		11		1
10		27		5		ar
11		45		19		1
12		44		18		1
13		10		40		1
14		8		7		ar
15		41		12		1
16		11		12		ar
17		11		25		ar
18		12		13		ar
19		29		1		1
20		19		18		ar
21		19		20		ar
22		1		30		1
23		1		2		1
24		34		4		1
25		18		17		ar
26		25		15		ar
27		13		42		1
28		13		14		ar
29		22		21		3
30		15		14		ar
31		15		16		1
32		21		20		1
33		5		2		1
34		5		6		ar
35		20		23		ar
36		17		16		1
37		17		24		ar
38		16		43		1
39		7		6		ar
40		7		38		1
41		2		4		1
42		2		3		1
43		4		35		1
44		4		36		1
45		23		24		ar
46		23		46		1
47		6		37		1
48		24		47		1
49		3		33		1
50		3		32		1
51		3		31		1

