@<TRIPOS>MOLECULE
GSX-2011-BMC-5117-10c
 37 39 0 0 0
SMALL
MULLIKEN_CHARGES
****
Gaussian 16 #p B3LYP/6-31G* opt
@<TRIPOS>ATOM
1		N		8.1424		-1.2055		-0.5639		N.1		1		UNL1		-0.4855
2		C		7.0165		-0.9846		-0.3664		C.1		1		UNL1		0.2269
3		C		5.6329		-0.7146		-0.1222		C.ar		1		UNL1		0.1308
4		C		4.9819		0.3412		-0.7813		C.ar		1		UNL1		-0.1532
5		C		3.6390		0.6147		-0.5535		C.ar		1		UNL1		-0.1600
6		C		2.9084		-0.1758		0.3535		C.ar		1		UNL1		0.3836
7		N		1.5598		0.0124		0.6552		N.pl3		1		UNL1		-0.7665
8		C		0.6226		0.9238		0.2121		C.ar		1		UNL1		0.6941
9		N		0.9610		1.8574		-0.6880		N.ar		1		UNL1		-0.4768
10		C		-0.0215		2.6922		-1.0450		C.ar		1		UNL1		0.0711
11		C		-1.3138		2.6177		-0.5389		C.ar		1		UNL1		-0.1937
12		C		-1.5493		1.5998		0.3910		C.ar		1		UNL1		0.3241
13		C		-2.9165		1.3693		1.0215		C.3		1		UNL1		0.0244
14		O		-3.6955		2.5367		0.7921		O.3		1		UNL1		-0.6344
15		C		-3.5771		0.1125		0.4628		C.ar		1		UNL1		0.1149
16		C		-4.3388		0.1753		-0.7110		C.ar		1		UNL1		-0.1825
17		C		-4.9351		-0.9700		-1.2372		C.ar		1		UNL1		-0.1944
18		C		-4.7532		-2.1799		-0.5769		C.ar		1		UNL1		0.3828
19		F		-5.3291		-3.2919		-1.0779		F		1		UNL1		-0.2944
20		C		-4.0003		-2.2771		0.5880		C.ar		1		UNL1		-0.1995
21		C		-3.4148		-1.1214		1.1032		C.ar		1		UNL1		-0.1687
22		N		-0.5906		0.7567		0.7744		N.ar		1		UNL1		-0.5515
23		C		3.5623		-1.2359		1.0149		C.ar		1		UNL1		-0.2057
24		C		4.9011		-1.5033		0.7834		C.ar		1		UNL1		-0.1404
25		H		5.5390		0.9551		-1.4821		H		1		UNL1		0.1578
26		H		3.1453		1.4283		-1.0646		H		1		UNL1		0.1892
27		H		1.1612		-0.6318		1.3262		H		1		UNL1		0.3442
28		H		0.2490		3.4560		-1.7723		H		1		UNL1		0.1553
29		H		-2.0933		3.3085		-0.8297		H		1		UNL1		0.1690
30		H		-2.7432		1.2210		2.0980		H		1		UNL1		0.1490
31		H		-4.5936		2.3506		1.1073		H		1		UNL1		0.4021
32		H		-4.4688		1.1303		-1.2111		H		1		UNL1		0.1501
33		H		-5.5308		-0.9378		-2.1436		H		1		UNL1		0.1516
34		H		-3.8880		-3.2400		1.0753		H		1		UNL1		0.1511
35		H		-2.8214		-1.1803		2.0114		H		1		UNL1		0.1431
36		H		3.0069		-1.8530		1.7175		H		1		UNL1		0.1351
37		H		5.3891		-2.3230		1.3007		H		1		UNL1		0.1572
@<TRIPOS>BOND
1		33		17		1
2		28		10		1
3		25		4		1
4		17		16		ar
5		17		18		ar
6		32		16		1
7		19		18		1
8		26		5		1
9		10		9		ar
10		10		11		ar
11		29		11		1
12		4		5		ar
13		4		3		ar
14		16		15		ar
15		9		8		ar
16		18		20		ar
17		1		2		3
18		5		6		ar
19		11		12		ar
20		2		3		1
21		3		24		ar
22		8		7		1
23		8		22		ar
24		6		7		1
25		6		23		ar
26		12		22		ar
27		12		13		1
28		15		13		1
29		15		21		ar
30		20		34		1
31		20		21		ar
32		7		27		1
33		24		23		ar
34		24		37		1
35		14		13		1
36		14		31		1
37		23		36		1
38		13		30		1
39		21		35		1

