@<TRIPOS>MOLECULE
GSX-2011-BMC-7093-1p
 40 42 0 0 0
SMALL
MULLIKEN_CHARGES

@<TRIPOS>ATOM
1		N		-7.9415		-1.3211		-0.0471		N.1		1		UNL1		-0.4851
2		C		-6.8013		-1.0859		-0.0517		C.1		1		UNL1		0.2272
3		C		-5.3995		-0.7991		-0.0577		C.ar		1		UNL1		0.1311
4		C		-4.9387		0.5241		0.0414		C.ar		1		UNL1		-0.1534
5		C		-3.5806		0.8169		0.0367		C.ar		1		UNL1		-0.1591
6		C		-2.6414		-0.2259		-0.0693		C.ar		1		UNL1		0.3830
7		N		-1.2584		-0.0432		-0.0841		N.pl3		1		UNL1		-0.7593
8		C		-0.4678		1.0856		-0.0133		C.ar		1		UNL1		0.6898
9		N		-1.0242		2.2943		0.1020		N.ar		1		UNL1		-0.4850
10		C		-0.1569		3.3186		0.1611		C.ar		1		UNL1		0.0732
11		C		1.2164		3.1654		0.1084		C.ar		1		UNL1		-0.1923
12		C		1.6870		1.8419		-0.0140		C.ar		1		UNL1		0.1341
13		S		3.4377		1.5845		-0.1055		S.3		1		UNL1		0.1533
14		C		3.5945		-0.2545		-0.1977		C.3		1		UNL1		-0.2591
15		C		4.9604		-0.5785		-0.8502		C.3		1		UNL1		-0.2755
16		C		5.4563		-1.9948		-0.4646		C.3		1		UNL1		-0.2692
17		C		4.2832		-2.9507		-0.2124		C.3		1		UNL1		-0.2680
18		C		3.4324		-2.4782		0.9916		C.3		1		UNL1		-0.2670
19		C		3.4524		-0.9384		1.1666		C.3		1		UNL1		-0.2588
20		N		0.8540		0.8066		-0.0725		N.ar		1		UNL1		-0.5317
21		C		-3.1042		-1.5541		-0.1688		C.ar		1		UNL1		-0.2059
22		C		-4.4593		-1.8394		-0.1633		C.ar		1		UNL1		-0.1404
23		H		-5.6577		1.3332		0.1231		H		1		UNL1		0.1582
24		H		-3.2330		1.8369		0.1133		H		1		UNL1		0.1905
25		H		-0.7016		-0.8838		-0.1689		H		1		UNL1		0.3434
26		H		-0.6006		4.3079		0.2562		H		1		UNL1		0.1558
27		H		1.8914		4.0118		0.1583		H		1		UNL1		0.1576
28		H		2.7766		-0.5808		-0.8455		H		1		UNL1		0.1862
29		H		5.7136		0.1591		-0.5451		H		1		UNL1		0.1533
30		H		4.8621		-0.4876		-1.9380		H		1		UNL1		0.1518
31		H		6.1125		-2.3805		-1.2533		H		1		UNL1		0.1415
32		H		6.0697		-1.9375		0.4443		H		1		UNL1		0.1401
33		H		3.6610		-2.9968		-1.1168		H		1		UNL1		0.1344
34		H		4.6471		-3.9705		-0.0415		H		1		UNL1		0.1392
35		H		3.8003		-2.9424		1.9148		H		1		UNL1		0.1414
36		H		2.3985		-2.8226		0.8653		H		1		UNL1		0.1330
37		H		4.2939		-0.6353		1.8024		H		1		UNL1		0.1434
38		H		2.5402		-0.6020		1.6671		H		1		UNL1		0.1565
39		H		-2.3866		-2.3673		-0.2513		H		1		UNL1		0.1346
40		H		-4.7990		-2.8671		-0.2408		H		1		UNL1		0.1574
@<TRIPOS>BOND
1		30		15		1
2		31		16		1
3		33		17		1
4		15		29		1
5		15		16		1
6		15		14		1
7		28		14		1
8		16		17		1
9		16		32		1
10		39		21		1
11		40		22		1
12		17		34		1
13		17		18		1
14		14		13		1
15		14		19		1
16		25		7		1
17		21		22		ar
18		21		6		ar
19		22		3		ar
20		13		12		1
21		7		6		1
22		7		8		1
23		20		12		ar
24		20		8		ar
25		6		5		ar
26		3		2		1
27		3		4		ar
28		2		1		3
29		12		11		ar
30		8		9		ar
31		5		4		ar
32		5		24		1
33		4		23		1
34		9		10		ar
35		11		27		1
36		11		10		ar
37		10		26		1
38		36		18		1
39		18		19		1
40		18		35		1
41		19		38		1
42		19		37		1

