@<TRIPOS>MOLECULE
GSX-2011-BMC-5117-10w
 40 42 0 0 0
SMALL
MULLIKEN_CHARGES
****
Gaussian 16 #p B3LYP/6-31G* opt
@<TRIPOS>ATOM
1		C		-1.9763		-2.0529		1.1425		C.3		1		UNL1		-0.5454
2		C		-0.7242		-1.4125		0.6046		C.ar		1		UNL1		0.1160
3		C		0.5270		-1.7384		1.1283		C.ar		1		UNL1		0.0173
4		N		1.6876		-1.2049		0.7312		N.ar		1		UNL1		-0.4717
5		C		1.5936		-0.2971		-0.2439		C.ar		1		UNL1		0.6884
6		N		2.7212		0.3317		-0.7352		N.pl3		1		UNL1		-0.7662
7		C		4.0726		0.2270		-0.4091		C.ar		1		UNL1		0.3831
8		C		4.5862		-0.6282		0.5840		C.ar		1		UNL1		-0.1613
9		C		5.9529		-0.6562		0.8315		C.ar		1		UNL1		-0.1532
10		C		6.8415		0.1558		0.1076		C.ar		1		UNL1		0.1307
11		C		8.2469		0.1167		0.3731		C.1		1		UNL1		0.2269
12		N		9.3907		0.0862		0.5878		N.1		1		UNL1		-0.4851
13		C		6.3264		1.0095		-0.8842		C.ar		1		UNL1		-0.1404
14		C		4.9652		1.0422		-1.1358		C.ar		1		UNL1		-0.2064
15		N		0.4546		0.0960		-0.8489		N.ar		1		UNL1		-0.5611
16		C		-0.6895		-0.4508		-0.4288		C.ar		1		UNL1		0.2630
17		C		-1.9303		0.0340		-1.1942		C.3		1		UNL1		0.0138
18		O		-2.6450		-1.0487		-1.7661		O.3		1		UNL1		-0.6151
19		C		-2.8168		0.9346		-0.3288		C.ar		1		UNL1		0.1183
20		C		-2.2203		2.1624		0.0202		C.ar		1		UNL1		-0.1782
21		C		-2.8663		3.1150		0.7972		C.ar		1		UNL1		-0.1255
22		C		-4.1616		2.8642		1.2524		C.ar		1		UNL1		-0.1250
23		C		-4.7804		1.6646		0.9218		C.ar		1		UNL1		-0.1443
24		C		-4.1188		0.7075		0.1410		C.ar		1		UNL1		0.0100
25		BR		-5.1414		-0.8816		-0.1946		Br		1		UNL1		-0.1075
26		H		-2.5949		-1.3313		1.6885		H		1		UNL1		0.1795
27		H		-1.7190		-2.8613		1.8348		H		1		UNL1		0.1529
28		H		-2.6005		-2.4565		0.3424		H		1		UNL1		0.1983
29		H		0.5998		-2.4799		1.9237		H		1		UNL1		0.1495
30		H		2.4909		0.9871		-1.4711		H		1		UNL1		0.3435
31		H		3.9094		-1.2562		1.1451		H		1		UNL1		0.1892
32		H		6.3418		-1.3182		1.5988		H		1		UNL1		0.1581
33		H		6.9996		1.6432		-1.4524		H		1		UNL1		0.1575
34		H		4.5787		1.7066		-1.9053		H		1		UNL1		0.1351
35		H		-1.5309		0.6765		-1.9906		H		1		UNL1		0.1606
36		H		-2.0560		-1.4634		-2.4165		H		1		UNL1		0.4030
37		H		-1.2130		2.3587		-0.3388		H		1		UNL1		0.1509
38		H		-2.3649		4.0473		1.0400		H		1		UNL1		0.1405
39		H		-4.6904		3.5949		1.8576		H		1		UNL1		0.1430
40		H		-5.7870		1.4507		1.2637		H		1		UNL1		0.1571
@<TRIPOS>BOND
1		36		18		1
2		35		17		1
3		34		14		1
4		18		17		1
5		30		6		1
6		33		13		1
7		17		16		1
8		17		19		1
9		14		13		ar
10		14		7		ar
11		13		10		ar
12		15		16		ar
13		15		5		ar
14		6		7		1
15		6		5		1
16		16		2		ar
17		7		8		ar
18		37		20		1
19		19		20		ar
20		19		24		ar
21		5		4		ar
22		25		24		1
23		20		21		ar
24		10		11		1
25		10		9		ar
26		24		23		ar
27		28		1		1
28		11		12		3
29		8		9		ar
30		8		31		1
31		2		3		ar
32		2		1		1
33		4		3		ar
34		21		38		1
35		21		22		ar
36		9		32		1
37		23		22		ar
38		23		40		1
39		3		29		1
40		1		26		1
41		1		27		1
42		22		39		1

