@<TRIPOS>MOLECULE
GSX-2011-BMC-5117-10a
 37 39 0 0 0
SMALL
MULLIKEN_CHARGES
****
Gaussian 16 #p B3LYP/6-31G* opt
@<TRIPOS>ATOM
1		N		8.3681		-0.1628		0.8471		N.1		1		UNL1		-0.4831
2		C		7.2319		-0.0517		0.6196		C.1		1		UNL1		0.2284
3		C		5.8354		0.0862		0.3395		C.ar		1		UNL1		0.1322
4		C		5.2987		1.3374		-0.0122		C.ar		1		UNL1		-0.1400
5		C		3.9462		1.4628		-0.2820		C.ar		1		UNL1		-0.2056
6		C		3.0866		0.3480		-0.2104		C.ar		1		UNL1		0.3820
7		N		1.7396		0.5785		-0.5014		N.pl3		1		UNL1		-0.7665
8		C		0.6412		-0.2510		-0.5262		C.ar		1		UNL1		0.7096
9		N		0.7626		-1.5513		-0.2384		N.ar		1		UNL1		-0.4790
10		C		-0.3709		-2.2641		-0.2885		C.ar		1		UNL1		0.0716
11		C		-1.6047		-1.7182		-0.6124		C.ar		1		UNL1		-0.1920
12		C		-1.6172		-0.3474		-0.8987		C.ar		1		UNL1		0.3367
13		C		-2.8880		0.4016		-1.3103		C.3		1		UNL1		0.0238
14		O		-2.6347		1.7751		-1.4960		O.3		1		UNL1		-0.6378
15		C		-4.0248		0.1845		-0.3231		C.ar		1		UNL1		0.0992
16		C		-5.2432		-0.3774		-0.7144		C.ar		1		UNL1		-0.2036
17		C		-6.2930		-0.5388		0.1933		C.ar		1		UNL1		-0.1269
18		C		-6.1349		-0.1257		1.5161		C.ar		1		UNL1		-0.1300
19		C		-4.9290		0.4430		1.9335		C.ar		1		UNL1		-0.1932
20		C		-3.9049		0.5880		1.0093		C.ar		1		UNL1		0.3446
21		F		-2.7323		1.1208		1.4189		F		1		UNL1		-0.2921
22		N		-0.5057		0.3809		-0.8624		N.ar		1		UNL1		-0.6057
23		C		3.6207		-0.9050		0.1412		C.ar		1		UNL1		-0.1587
24		C		4.9786		-1.0242		0.4108		C.ar		1		UNL1		-0.1530
25		H		5.9477		2.2050		-0.0715		H		1		UNL1		0.1598
26		H		3.5425		2.4357		-0.5528		H		1		UNL1		0.1388
27		H		1.4972		1.5326		-0.7359		H		1		UNL1		0.3462
28		H		-0.2728		-3.3224		-0.0542		H		1		UNL1		0.1592
29		H		-2.5087		-2.3156		-0.6341		H		1		UNL1		0.1555
30		H		-3.2075		-0.0374		-2.2706		H		1		UNL1		0.1507
31		H		-1.6874		1.8976		-1.2866		H		1		UNL1		0.4117
32		H		-5.3701		-0.6846		-1.7500		H		1		UNL1		0.1384
33		H		-7.2311		-0.9763		-0.1351		H		1		UNL1		0.1369
34		H		-6.9467		-0.2433		2.2282		H		1		UNL1		0.1423
35		H		-4.7725		0.7731		2.9553		H		1		UNL1		0.1497
36		H		2.9681		-1.7638		0.1985		H		1		UNL1		0.1901
37		H		5.3849		-1.9936		0.6818		H		1		UNL1		0.1595
@<TRIPOS>BOND
1		30		13		1
2		32		16		1
3		14		13		1
4		14		31		1
5		13		12		1
6		13		15		1
7		12		22		ar
8		12		11		ar
9		22		8		ar
10		27		7		1
11		16		15		ar
12		16		17		ar
13		29		11		1
14		11		10		ar
15		26		5		1
16		8		7		1
17		8		9		ar
18		7		6		1
19		15		20		ar
20		10		9		ar
21		10		28		1
22		5		6		ar
23		5		4		ar
24		6		23		ar
25		33		17		1
26		25		4		1
27		4		3		ar
28		23		36		1
29		23		24		ar
30		17		18		ar
31		3		24		ar
32		3		2		1
33		24		37		1
34		2		1		3
35		20		21		1
36		20		19		ar
37		18		19		ar
38		18		34		1
39		19		35		1

