@<TRIPOS>MOLECULE
GSX-2011-BMC-5117-10m
 37 39 0 0 0
SMALL
MULLIKEN_CHARGES
****
Gaussian 16 #p B3LYP/6-31G* opt
@<TRIPOS>ATOM
1		N		-8.2870		-2.0347		-0.5047		N.1		1		UNL1		-0.4829
2		C		-7.1980		-1.6453		-0.3714		C.1		1		UNL1		0.2285
3		C		-5.8592		-1.1674		-0.2071		C.ar		1		UNL1		0.1322
4		C		-5.5499		0.1839		-0.4316		C.ar		1		UNL1		-0.1529
5		C		-4.2545		0.6619		-0.2758		C.ar		1		UNL1		-0.1593
6		C		-3.2282		-0.2177		0.1140		C.ar		1		UNL1		0.3811
7		N		-1.8953		0.1571		0.3020		N.pl3		1		UNL1		-0.7653
8		C		-1.2390		1.3595		0.1656		C.ar		1		UNL1		0.6972
9		N		-1.9055		2.4557		-0.2253		N.ar		1		UNL1		-0.4731
10		C		-1.1716		3.5683		-0.3196		C.ar		1		UNL1		0.0760
11		C		0.1922		3.6141		-0.0503		C.ar		1		UNL1		-0.2143
12		C		0.7878		2.4062		0.3377		C.ar		1		UNL1		0.3028
13		C		2.2849		2.3499		0.6885		C.3		1		UNL1		-0.0008
14		O		2.9497		3.5188		0.2336		O.3		1		UNL1		-0.6090
15		C		2.9853		1.0629		0.2477		C.ar		1		UNL1		0.1456
16		C		3.9902		1.0870		-0.7226		C.ar		1		UNL1		-0.1744
17		C		4.6283		-0.0867		-1.1184		C.ar		1		UNL1		-0.1299
18		C		4.2811		-1.3079		-0.5422		C.ar		1		UNL1		-0.0724
19		CL		5.1036		-2.7577		-1.0642		Cl		1		UNL1		0.0174
20		C		3.2902		-1.3386		0.4482		C.ar		1		UNL1		-0.0847
21		CL		2.8224		-2.8359		1.2238		Cl		1		UNL1		0.0097
22		C		2.6545		-0.1612		0.8383		C.ar		1		UNL1		-0.1459
23		N		0.0770		1.2874		0.4553		N.ar		1		UNL1		-0.5504
24		C		-3.5382		-1.5742		0.3392		C.ar		1		UNL1		-0.2059
25		C		-4.8313		-2.0445		0.1821		C.ar		1		UNL1		-0.1401
26		H		-6.3376		0.8675		-0.7324		H		1		UNL1		0.1593
27		H		-4.0251		1.7026		-0.4519		H		1		UNL1		0.1888
28		H		-1.2644		-0.5826		0.5842		H		1		UNL1		0.3499
29		H		-1.7084		4.4648		-0.6253		H		1		UNL1		0.1596
30		H		0.7566		4.5350		-0.1106		H		1		UNL1		0.1608
31		H		2.3502		2.4110		1.7828		H		1		UNL1		0.1927
32		H		2.8175		3.5811		-0.7268		H		1		UNL1		0.3947
33		H		4.3072		2.0283		-1.1577		H		1		UNL1		0.1355
34		H		5.4078		-0.0621		-1.8724		H		1		UNL1		0.1637
35		H		1.8902		-0.2102		1.6032		H		1		UNL1		0.1639
36		H		-2.7513		-2.2620		0.6400		H		1		UNL1		0.1414
37		H		-5.0541		-3.0917		0.3589		H		1		UNL1		0.1604
@<TRIPOS>BOND
1		34		17		1
2		33		16		1
3		17		16		ar
4		17		18		ar
5		19		18		1
6		26		4		1
7		32		14		1
8		16		15		ar
9		29		10		1
10		18		20		ar
11		1		2		3
12		27		5		1
13		4		5		ar
14		4		3		ar
15		2		3		1
16		10		9		ar
17		10		11		ar
18		5		6		ar
19		9		8		ar
20		3		25		ar
21		30		11		1
22		11		12		ar
23		6		7		1
24		6		24		ar
25		8		7		1
26		8		23		ar
27		25		24		ar
28		25		37		1
29		14		13		1
30		15		13		1
31		15		22		ar
32		7		28		1
33		12		23		ar
34		12		13		1
35		24		36		1
36		20		22		ar
37		20		21		1
38		13		31		1
39		22		35		1

