@<TRIPOS>MOLECULE
GSX-2019-EJMC277-5-15b7
 50 52 0 0 0
SMALL
MULLIKEN_CHARGES
****
Gaussian 16 #p B3LYP/6-31G* opt
@<TRIPOS>ATOM
1		C		2.5713		4.6029		0.0003		C.3		1		UNL1		-0.5343
2		C		0.8583		3.1765		-1.2012		C.ar		1		UNL1		-0.2768
3		C		-0.2330		2.3016		-1.2293		C.ar		1		UNL1		0.1917
4		C		-0.7440		1.8775		0.0001		C.ar		1		UNL1		0.2014
5		C		-0.2329		2.3012		1.2295		C.ar		1		UNL1		0.1917
6		C		0.8585		3.1761		1.2015		C.ar		1		UNL1		-0.2768
7		C		1.4179		3.6257		0.0002		C.ar		1		UNL1		0.2097
8		C		-1.7954		-0.2570		0.0000		C.ar		1		UNL1		0.5492
9		C		-2.9802		-1.0451		0.0000		C.ar		1		UNL1		0.0058
10		C		-2.7357		-2.4275		0.0002		C.ar		1		UNL1		0.0103
11		N		-1.5326		-2.9918		0.0003		N.ar		1		UNL1		-0.5015
12		C		-0.4960		-2.1262		0.0003		C.ar		1		UNL1		0.6985
13		N		-0.5781		-0.7910		0.0001		N.ar		1		UNL1		-0.5523
14		C		3.7006		-0.4848		0.0001		C.ar		1		UNL1		-0.1592
15		C		2.3660		-0.8716		0.0003		C.ar		1		UNL1		-0.1634
16		C		2.0377		-2.2393		0.0001		C.ar		1		UNL1		0.3751
17		C		3.0741		-3.1940		-0.0002		C.ar		1		UNL1		-0.2028
18		C		4.4026		-2.8018		-0.0004		C.ar		1		UNL1		-0.1407
19		C		4.7342		-1.4354		-0.0002		C.ar		1		UNL1		0.1339
20		O		-1.9041		1.0761		-0.0001		O.3		1		UNL1		-0.5233
21		N		0.7308		-2.7387		0.0003		N.pl3		1		UNL1		-0.7620
22		C		6.1042		-1.0211		-0.0004		C.1		1		UNL1		0.2296
23		N		7.2184		-0.6843		-0.0006		N.1		1		UNL1		-0.4821
24		C		-4.3573		-0.4864		-0.0002		C.2		1		UNL1		0.3637
25		C		-0.8375		1.8267		-2.5271		C.3		1		UNL1		-0.5389
26		C		-0.8372		1.8260		2.5272		C.3		1		UNL1		-0.5389
27		C		-5.5474		-1.4734		-0.0001		C.3		1		UNL1		-0.2463
28		O		-4.5836		0.7143		-0.0005		O.2		1		UNL1		-0.4551
29		N		-6.8565		-0.8415		-0.0004		N.3		1		UNL1		-0.6841
30		H		3.2030		4.4785		0.8861		H		1		UNL1		0.1597
31		H		2.2126		5.6408		0.0007		H		1		UNL1		0.1695
32		H		3.2027		4.4791		-0.8859		H		1		UNL1		0.1597
33		H		1.2756		3.5192		-2.1458		H		1		UNL1		0.1221
34		H		1.2759		3.5186		2.1461		H		1		UNL1		0.1221
35		H		-3.5689		-3.1258		0.0003		H		1		UNL1		0.1656
36		H		3.9454		0.5725		0.0002		H		1		UNL1		0.1630
37		H		1.5825		-0.1283		0.0005		H		1		UNL1		0.2104
38		H		2.8287		-4.2535		-0.0003		H		1		UNL1		0.1406
39		H		5.1902		-3.5482		-0.0006		H		1		UNL1		0.1606
40		H		0.6394		-3.7474		0.0004		H		1		UNL1		0.3524
41		H		-1.9231		1.9727		-2.5369		H		1		UNL1		0.1809
42		H		-0.6533		0.7564		-2.6844		H		1		UNL1		0.1655
43		H		-0.4084		2.3671		-3.3757		H		1		UNL1		0.1580
44		H		-0.4077		2.3660		3.3759		H		1		UNL1		0.1580
45		H		-0.6533		0.7556		2.6841		H		1		UNL1		0.1655
46		H		-1.9228		1.9723		2.5373		H		1		UNL1		0.1809
47		H		-5.4709		-2.1304		0.8770		H		1		UNL1		0.1663
48		H		-5.4707		-2.1309		-0.8767		H		1		UNL1		0.1663
49		H		-6.9101		-0.2155		-0.8037		H		1		UNL1		0.3053
50		H		-6.9101		-0.2147		0.8024		H		1		UNL1		0.3053
@<TRIPOS>BOND
1		43		25		1
2		42		25		1
3		41		25		1
4		25		3		1
5		33		2		1
6		3		2		ar
7		3		4		ar
8		2		7		ar
9		32		1		1
10		48		27		1
11		49		29		1
12		39		18		1
13		23		22		3
14		28		24		2
15		22		19		1
16		18		19		ar
17		18		17		ar
18		29		27		1
19		29		50		1
20		38		17		1
21		19		14		ar
22		24		27		1
23		24		9		1
24		17		16		ar
25		27		47		1
26		20		8		1
27		20		4		1
28		9		8		ar
29		9		10		ar
30		8		13		ar
31		4		5		ar
32		14		36		1
33		14		15		ar
34		16		15		ar
35		16		21		1
36		13		12		ar
37		7		1		1
38		7		6		ar
39		10		35		1
40		10		11		ar
41		1		31		1
42		1		30		1
43		15		37		1
44		12		21		1
45		12		11		ar
46		21		40		1
47		6		5		ar
48		6		34		1
49		5		26		1
50		26		46		1
51		26		45		1
52		26		44		1

