@<TRIPOS>MOLECULE
GSX-2019-EJMC277-11-34f
 51 54 0 0 0
SMALL
MULLIKEN_CHARGES

@<TRIPOS>ATOM
1		C		-4.8593		-2.2543		0.6145		C.ar		1		UNL1		-0.1452
2		C		-3.7356		-2.5072		1.3837		C.ar		1		UNL1		-0.1568
3		C		-2.5619		-1.8116		1.0687		C.ar		1		UNL1		0.3612
4		C		-2.4957		-0.8721		0.0032		C.ar		1		UNL1		0.0692
5		C		-3.6461		-0.6326		-0.7746		C.ar		1		UNL1		-0.1951
6		C		-4.7980		-1.3274		-0.4481		C.ar		1		UNL1		-0.0775
7		N		-1.3175		-1.8690		1.6465		N.ar		1		UNL1		-0.7245
8		C		-0.4471		-1.0297		1.0083		C.ar		1		UNL1		0.2651
9		C		-1.1424		-0.3712		-0.0055		C.ar		1		UNL1		-0.3009
10		S		-0.5013		0.8226		-1.1561		S.O2		1		UNL1		1.1945
11		O		-1.5974		1.1899		-2.0662		O.2		1		UNL1		-0.5390
12		O		0.7252		0.2133		-1.7224		O.2		1		UNL1		-0.5852
13		C		-0.0005		2.3050		-0.2129		C.ar		1		UNL1		-0.2511
14		C		1.2565		2.9072		-0.4767		C.ar		1		UNL1		0.1405
15		C		1.5965		4.0387		0.2791		C.ar		1		UNL1		-0.1790
16		C		0.7385		4.5731		1.2319		C.ar		1		UNL1		-0.1082
17		C		-0.5143		4.0036		1.4228		C.ar		1		UNL1		-0.1740
18		C		-0.9199		2.8758		0.7004		C.ar		1		UNL1		0.1587
19		C		0.9397		-1.0512		1.5739		C.2		1		UNL1		0.5754
20		O		1.0986		-1.5292		2.7008		O.2		1		UNL1		-0.5467
21		N		1.9380		-0.5744		0.7947		N.am		1		UNL1		-0.6587
22		CL		-6.2565		-1.0579		-1.3965		Cl		1		UNL1		-0.0213
23		C		-2.3244		2.3672		0.9392		C.3		1		UNL1		-0.5566
24		C		2.2562		2.4806		-1.5355		C.3		1		UNL1		-0.5120
25		C		3.3156		-0.5320		1.2605		C.3		1		UNL1		-0.2015
26		C		4.2946		-1.1921		0.3098		C.ar		1		UNL1		0.1607
27		C		3.9794		-2.3580		-0.3947		C.ar		1		UNL1		-0.1724
28		C		4.9456		-2.9305		-1.2217		C.ar		1		UNL1		0.0400
29		N		6.1781		-2.4340		-1.3895		N.ar		1		UNL1		-0.4061
30		C		6.4722		-1.3176		-0.7129		C.ar		1		UNL1		0.0425
31		C		5.5770		-0.6640		0.1343		C.ar		1		UNL1		-0.1941
32		H		-5.7917		-2.7687		0.8184		H		1		UNL1		0.1595
33		H		-3.7668		-3.2232		2.1994		H		1		UNL1		0.1482
34		H		-3.6203		0.0594		-1.6059		H		1		UNL1		0.2041
35		H		-1.0163		-2.3953		2.4579		H		1		UNL1		0.3577
36		H		2.5565		4.5126		0.0937		H		1		UNL1		0.1365
37		H		1.0341		5.4491		1.8027		H		1		UNL1		0.1438
38		H		-1.2087		4.4435		2.1334		H		1		UNL1		0.1375
39		H		1.7262		-0.3145		-0.1688		H		1		UNL1		0.4041
40		H		-2.9161		3.1472		1.4268		H		1		UNL1		0.1630
41		H		-2.3375		1.4881		1.5920		H		1		UNL1		0.1815
42		H		-2.8275		2.0964		0.0088		H		1		UNL1		0.2012
43		H		2.7786		1.5556		-1.2757		H		1		UNL1		0.1703
44		H		3.0071		3.2679		-1.6505		H		1		UNL1		0.1507
45		H		1.7894		2.3058		-2.5064		H		1		UNL1		0.1963
46		H		3.3269		-1.0363		2.2323		H		1		UNL1		0.2134
47		H		3.6178		0.5095		1.4326		H		1		UNL1		0.1658
48		H		2.9967		-2.8118		-0.3083		H		1		UNL1		0.1427
49		H		4.7164		-3.8369		-1.7798		H		1		UNL1		0.1463
50		H		7.4750		-0.9190		-0.8596		H		1		UNL1		0.1433
51		H		5.8791		0.2450		0.6488		H		1		UNL1		0.1320
@<TRIPOS>BOND
1		45		24		1
2		11		10		2
3		49		28		1
4		12		10		2
5		44		24		1
6		34		5		1
7		24		43		1
8		24		14		1
9		22		6		1
10		29		28		ar
11		29		30		ar
12		28		27		ar
13		10		13		1
14		10		9		1
15		50		30		1
16		5		6		ar
17		5		4		ar
18		30		31		ar
19		14		13		ar
20		14		15		ar
21		6		1		ar
22		27		48		1
23		27		26		ar
24		13		18		ar
25		39		21		1
26		9		4		ar
27		9		8		ar
28		4		3		ar
29		42		23		1
30		36		15		1
31		31		26		ar
32		31		51		1
33		15		16		ar
34		26		25		1
35		1		32		1
36		1		2		ar
37		18		23		1
38		18		17		ar
39		21		25		1
40		21		19		1
41		23		40		1
42		23		41		1
43		8		19		1
44		8		7		ar
45		3		2		ar
46		3		7		ar
47		16		17		ar
48		16		37		1
49		25		47		1
50		25		46		1
51		2		33		1
52		17		38		1
53		19		20		2
54		7		35		1

