@<TRIPOS>MOLECULE
GSX-2011-BMC-4220-12q
 58 61 0 0 0
SMALL
MULLIKEN_CHARGES
****
Gaussian 16 #p B3LYP/6-31G* opt
@<TRIPOS>ATOM
1		C		-5.3916		2.5442		-1.6010		C.3		1		UNL1		-0.5672
2		C		-5.3426		1.1906		-0.9297		C.ar		1		UNL1		0.1536
3		C		-6.5232		0.5638		-0.5376		C.ar		1		UNL1		-0.2113
4		C		-6.4953		-0.6831		0.0875		C.ar		1		UNL1		-0.1248
5		S		-8.0333		-1.4533		0.5740		S.O2		1		UNL1		1.1659
6		N		-8.5546		-2.2281		-0.8491		N.3		1		UNL1		-0.8147
7		O		-9.0162		-0.3947		0.8271		O.2		1		UNL1		-0.5440
8		O		-7.7157		-2.4798		1.5722		O.2		1		UNL1		-0.5276
9		C		-5.2859		-1.3224		0.3466		C.ar		1		UNL1		-0.1644
10		C		-4.0923		-0.7168		-0.0362		C.ar		1		UNL1		-0.1541
11		C		-4.1141		0.5313		-0.6768		C.ar		1		UNL1		0.2958
12		N		-2.9304		1.1834		-1.0805		N.am		1		UNL1		-0.7325
13		C		-1.6247		0.7402		-1.0159		C.2		1		UNL1		0.6018
14		O		-1.2610		-0.3127		-0.5259		O.2		1		UNL1		-0.4721
15		C		-0.6354		1.7154		-1.6903		C.3		1		UNL1		-0.1409
16		O		0.6950		1.4546		-1.3382		O.3		1		UNL1		-0.5024
17		C		1.1167		1.7647		-0.0689		C.ar		1		UNL1		0.3574
18		C		0.3770		2.4566		0.8879		C.ar		1		UNL1		-0.1924
19		C		0.9137		2.7247		2.1531		C.ar		1		UNL1		-0.2079
20		C		2.1960		2.2875		2.4359		C.ar		1		UNL1		0.3832
21		F		2.7299		2.5363		3.6513		F		1		UNL1		-0.3006
22		C		2.9637		1.5929		1.5044		C.ar		1		UNL1		-0.2567
23		C		2.4198		1.3307		0.2517		C.ar		1		UNL1		0.3278
24		O		3.1029		0.6778		-0.7474		O.3		1		UNL1		-0.5632
25		C		4.0561		-0.2630		-0.4102		C.ar		1		UNL1		0.2712
26		C		3.6267		-1.5496		0.0335		C.ar		1		UNL1		0.1901
27		C		2.1574		-1.8356		0.2179		C.3		1		UNL1		-0.5430
28		C		4.5929		-2.5024		0.2686		C.ar		1		UNL1		-0.2899
29		C		5.9760		-2.2465		0.0815		C.ar		1		UNL1		0.1700
30		C		6.9561		-3.2442		0.3300		C.ar		1		UNL1		-0.1976
31		C		8.2944		-2.9873		0.1398		C.ar		1		UNL1		-0.1322
32		C		8.7122		-1.7134		-0.3116		C.ar		1		UNL1		-0.1350
33		C		7.7907		-0.7215		-0.5649		C.ar		1		UNL1		-0.1953
34		C		6.4033		-0.9570		-0.3768		C.ar		1		UNL1		0.1253
35		C		5.3925		0.0207		-0.6132		C.ar		1		UNL1		-0.2123
36		CL		5.8359		1.6201		-1.1831		Cl		1		UNL1		0.0078
37		H		-4.9564		2.5231		-2.6101		H		1		UNL1		0.1658
38		H		-4.8591		3.3136		-1.0241		H		1		UNL1		0.1667
39		H		-6.4252		2.8836		-1.7056		H		1		UNL1		0.1834
40		H		-7.4755		1.0563		-0.7061		H		1		UNL1		0.1701
41		H		-9.5396		-2.0081		-0.9874		H		1		UNL1		0.3570
42		H		-8.4205		-3.2339		-0.7608		H		1		UNL1		0.3530
43		H		-5.2750		-2.2782		0.8590		H		1		UNL1		0.1808
44		H		-3.1432		-1.1948		0.1594		H		1		UNL1		0.1995
45		H		-3.0642		2.0896		-1.5077		H		1		UNL1		0.3405
46		H		-0.6831		1.5555		-2.7735		H		1		UNL1		0.1963
47		H		-0.9140		2.7631		-1.4975		H		1		UNL1		0.1511
48		H		-0.6360		2.7785		0.6747		H		1		UNL1		0.1334
49		H		0.3415		3.2547		2.9061		H		1		UNL1		0.1468
50		H		3.9664		1.2684		1.7565		H		1		UNL1		0.1688
51		H		1.5591		-1.4434		-0.6101		H		1		UNL1		0.1969
52		H		1.7692		-1.3663		1.1302		H		1		UNL1		0.1765
53		H		1.9856		-2.9130		0.2975		H		1		UNL1		0.1550
54		H		4.2912		-3.4932		0.6006		H		1		UNL1		0.1327
55		H		6.6245		-4.2201		0.6761		H		1		UNL1		0.1341
56		H		9.0324		-3.7603		0.3351		H		1		UNL1		0.1336
57		H		9.7701		-1.5156		-0.4605		H		1		UNL1		0.1347
58		H		8.1172		0.2525		-0.9110		H		1		UNL1		0.1557
@<TRIPOS>BOND
1		46		15		1
2		37		1		1
3		39		1		1
4		15		47		1
5		15		16		1
6		15		13		1
7		1		38		1
8		1		2		1
9		45		12		1
10		16		17		1
11		36		35		1
12		12		13		1
13		12		11		1
14		13		14		2
15		41		6		1
16		2		11		ar
17		2		3		ar
18		58		33		1
19		6		42		1
20		6		5		1
21		24		25		1
22		24		23		1
23		40		3		1
24		11		10		ar
25		35		25		ar
26		35		34		ar
27		51		27		1
28		33		34		ar
29		33		32		ar
30		3		4		ar
31		57		32		1
32		25		26		ar
33		34		29		ar
34		32		31		ar
35		17		23		ar
36		17		18		ar
37		10		44		1
38		10		9		ar
39		26		27		1
40		26		28		ar
41		29		28		ar
42		29		30		ar
43		4		9		ar
44		4		5		1
45		31		30		ar
46		31		56		1
47		27		53		1
48		27		52		1
49		23		22		ar
50		28		54		1
51		30		55		1
52		9		43		1
53		5		7		2
54		5		8		2
55		48		18		1
56		18		19		ar
57		22		50		1
58		22		20		ar
59		19		20		ar
60		19		49		1
61		20		21		1

