@<TRIPOS>MOLECULE
GSX-2011-BMC-7093-1h
 38 40 0 0 0
SMALL
MULLIKEN_CHARGES

@<TRIPOS>ATOM
1		N		-8.1823		0.2035		0.1628		N.1		1		UNL1		-0.4891
2		C		-7.0276		0.0562		0.1312		C.1		1		UNL1		0.2248
3		C		-5.6095		-0.1270		0.0927		C.ar		1		UNL1		0.1292
4		C		-4.7470		0.9753		-0.0311		C.ar		1		UNL1		-0.1544
5		C		-3.3684		0.8120		-0.0694		C.ar		1		UNL1		-0.1598
6		C		-2.8130		-0.4794		0.0168		C.ar		1		UNL1		0.3845
7		N		-1.4480		-0.7529		-0.0118		N.pl3		1		UNL1		-0.7696
8		C		-0.3331		0.0602		-0.1248		C.ar		1		UNL1		0.7046
9		N		-0.4840		1.3865		-0.2319		N.ar		1		UNL1		-0.4995
10		C		0.6674		2.0718		-0.3294		C.ar		1		UNL1		0.0594
11		C		1.9216		1.4934		-0.3257		C.ar		1		UNL1		-0.2100
12		C		1.9549		0.0808		-0.2167		C.ar		1		UNL1		0.5664
13		N		3.1046		-0.6468		-0.2275		N.pl3		1		UNL1		-0.6635
14		C		4.4596		-0.1282		-0.2377		C.3		1		UNL1		0.0600
15		C		5.4797		-1.1841		-0.7038		C.3		1		UNL1		-0.2913
16		C		6.8530		-0.6591		-0.2135		C.3		1		UNL1		-0.2779
17		C		6.5407		0.4345		0.8547		C.3		1		UNL1		-0.2757
18		C		5.0295		0.3234		1.1242		C.3		1		UNL1		-0.2699
19		N		0.8187		-0.6291		-0.1106		N.ar		1		UNL1		-0.6031
20		C		-3.6799		-1.5856		0.1410		C.ar		1		UNL1		-0.2068
21		C		-5.0535		-1.4159		0.1786		C.ar		1		UNL1		-0.1411
22		H		-5.1669		1.9742		-0.0982		H		1		UNL1		0.1548
23		H		-2.7090		1.6625		-0.1648		H		1		UNL1		0.1897
24		H		-1.1888		-1.7284		0.0589		H		1		UNL1		0.3405
25		H		0.5651		3.1527		-0.4118		H		1		UNL1		0.1456
26		H		2.8189		2.0946		-0.3950		H		1		UNL1		0.1368
27		H		2.9708		-1.6374		-0.0678		H		1		UNL1		0.3270
28		H		4.4911		0.7198		-0.9348		H		1		UNL1		0.1455
29		H		5.4391		-1.3559		-1.7838		H		1		UNL1		0.1544
30		H		5.2426		-2.1397		-0.2152		H		1		UNL1		0.1349
31		H		7.4540		-1.4725		0.2048		H		1		UNL1		0.1471
32		H		7.4320		-0.2380		-1.0417		H		1		UNL1		0.1467
33		H		7.1348		0.3133		1.7656		H		1		UNL1		0.1463
34		H		6.7764		1.4279		0.4549		H		1		UNL1		0.1426
35		H		4.5809		1.2525		1.4907		H		1		UNL1		0.1466
36		H		4.8193		-0.4580		1.8666		H		1		UNL1		0.1383
37		H		-3.2626		-2.5878		0.2083		H		1		UNL1		0.1321
38		H		-5.7054		-2.2783		0.2744		H		1		UNL1		0.1540
@<TRIPOS>BOND
1		29		15		1
2		32		16		1
3		28		14		1
4		15		14		1
5		15		30		1
6		15		16		1
7		25		10		1
8		26		11		1
9		10		11		ar
10		10		9		ar
11		11		12		ar
12		14		13		1
13		14		18		1
14		9		8		ar
15		13		12		1
16		13		27		1
17		12		19		ar
18		16		31		1
19		16		17		1
20		23		5		1
21		8		19		ar
22		8		7		1
23		22		4		1
24		5		4		ar
25		5		6		ar
26		4		3		ar
27		7		6		1
28		7		24		1
29		6		20		ar
30		3		2		1
31		3		21		ar
32		2		1		3
33		20		21		ar
34		20		37		1
35		21		38		1
36		34		17		1
37		17		18		1
38		17		33		1
39		18		35		1
40		18		36		1

