@<TRIPOS>MOLECULE
GSX-2011-BMC-4220-12c
 55 58 0 0 0
SMALL
MULLIKEN_CHARGES
****
Gaussian 16 #p B3LYP/6-31G* opt
@<TRIPOS>ATOM
1		C		-2.1030		-0.7334		-1.8300		C.3		1		UNL1		-0.5670
2		C		-3.1514		-0.7353		-0.7413		C.ar		1		UNL1		0.1564
3		C		-4.5060		-0.7450		-1.0717		C.ar		1		UNL1		-0.2287
4		C		-5.4865		-0.7561		-0.0781		C.ar		1		UNL1		-0.1422
5		S		-7.2200		-0.7341		-0.5460		S.O2		1		UNL1		1.1624
6		N		-7.7036		0.8822		-0.5946		N.3		1		UNL1		-0.7852
7		O		-7.3060		-1.2060		-1.9275		O.2		1		UNL1		-0.5285
8		O		-7.9780		-1.3321		0.5515		O.2		1		UNL1		-0.5260
9		C		-5.1292		-0.7722		1.2696		C.ar		1		UNL1		-0.1728
10		C		-3.7842		-0.7602		1.6256		C.ar		1		UNL1		-0.1543
11		C		-2.7952		-0.7368		0.6292		C.ar		1		UNL1		0.2951
12		N		-1.4231		-0.7293		0.9441		N.am		1		UNL1		-0.7251
13		C		-0.8159		-0.6577		2.1713		C.2		1		UNL1		0.5839
14		O		-1.3724		-0.6030		3.2574		O.2		1		UNL1		-0.4937
15		C		0.7178		-0.7141		2.0935		C.3		1		UNL1		-0.1471
16		O		1.2517		-0.3108		0.8366		O.3		1		UNL1		-0.5326
17		C		1.3953		1.0307		0.5849		C.ar		1		UNL1		0.3543
18		C		0.9223		2.0602		1.4011		C.ar		1		UNL1		-0.1985
19		C		1.1141		3.3965		1.0366		C.ar		1		UNL1		-0.1377
20		C		1.7756		3.6984		-0.1485		C.ar		1		UNL1		-0.0776
21		CL		2.0138		5.3748		-0.6152		Cl		1		UNL1		-0.0122
22		C		2.2532		2.6829		-0.9788		C.ar		1		UNL1		-0.1725
23		C		2.0633		1.3554		-0.6129		C.ar		1		UNL1		0.2981
24		O		2.4473		0.3600		-1.4847		O.3		1		UNL1		-0.5852
25		C		3.5572		-0.4184		-1.1961		C.ar		1		UNL1		0.3660
26		C		3.7175		-1.5462		-2.0386		C.ar		1		UNL1		-0.1703
27		C		4.7961		-2.3778		-1.8650		C.ar		1		UNL1		-0.1994
28		C		5.7615		-2.1308		-0.8505		C.ar		1		UNL1		0.1396
29		C		6.8839		-2.9756		-0.6472		C.ar		1		UNL1		-0.1924
30		C		7.8015		-2.7048		0.3434		C.ar		1		UNL1		-0.1370
31		C		7.6334		-1.5714		1.1754		C.ar		1		UNL1		-0.1347
32		C		6.5546		-0.7325		1.0039		C.ar		1		UNL1		-0.1935
33		C		5.5894		-0.9848		-0.0079		C.ar		1		UNL1		0.1315
34		C		4.4682		-0.1336		-0.2059		C.ar		1		UNL1		-0.2579
35		H		-1.4625		-1.6252		-1.7881		H		1		UNL1		0.1733
36		H		-1.4468		0.1456		-1.7729		H		1		UNL1		0.1746
37		H		-2.5737		-0.7231		-2.8163		H		1		UNL1		0.1793
38		H		-4.8057		-0.7674		-2.1149		H		1		UNL1		0.1733
39		H		-7.2114		1.4128		-1.3091		H		1		UNL1		0.3464
40		H		-7.6578		1.3276		0.3187		H		1		UNL1		0.3477
41		H		-5.8963		-0.8185		2.0358		H		1		UNL1		0.1783
42		H		-3.4869		-0.7763		2.6647		H		1		UNL1		0.1976
43		H		-0.7779		-0.7527		0.1641		H		1		UNL1		0.3664
44		H		1.1288		-0.1314		2.9228		H		1		UNL1		0.1878
45		H		1.0325		-1.7549		2.2192		H		1		UNL1		0.2050
46		H		0.3843		1.8405		2.3165		H		1		UNL1		0.1712
47		H		0.7399		4.1913		1.6722		H		1		UNL1		0.1646
48		H		2.7655		2.9054		-1.9077		H		1		UNL1		0.1735
49		H		2.9754		-1.7267		-2.8098		H		1		UNL1		0.1420
50		H		4.9217		-3.2440		-2.5101		H		1		UNL1		0.1373
51		H		7.0076		-3.8437		-1.2907		H		1		UNL1		0.1314
52		H		8.6570		-3.3583		0.4895		H		1		UNL1		0.1317
53		H		8.3629		-1.3642		1.9537		H		1		UNL1		0.1323
54		H		6.4280		0.1381		1.6432		H		1		UNL1		0.1295
55		H		4.3459		0.7396		0.4270		H		1		UNL1		0.1413
@<TRIPOS>BOND
1		37		1		1
2		49		26		1
3		50		27		1
4		38		3		1
5		26		27		ar
6		26		25		ar
7		7		5		2
8		48		22		1
9		27		28		ar
10		1		35		1
11		1		36		1
12		1		2		1
13		24		25		1
14		24		23		1
15		39		6		1
16		51		29		1
17		25		34		ar
18		3		2		ar
19		3		4		ar
20		22		23		ar
21		22		20		ar
22		28		29		ar
23		28		33		ar
24		2		11		ar
25		29		30		ar
26		21		20		1
27		23		17		ar
28		6		5		1
29		6		40		1
30		5		4		1
31		5		8		2
32		34		33		ar
33		34		55		1
34		20		19		ar
35		4		9		ar
36		33		32		ar
37		43		12		1
38		30		52		1
39		30		31		ar
40		17		16		1
41		17		18		ar
42		11		12		1
43		11		10		ar
44		16		15		1
45		12		13		1
46		32		31		ar
47		32		54		1
48		19		18		ar
49		19		47		1
50		31		53		1
51		9		10		ar
52		9		41		1
53		18		46		1
54		10		42		1
55		15		13		1
56		15		45		1
57		15		44		1
58		13		14		2

