@<TRIPOS>MOLECULE
GSX-2011-BMC-7093-1k
 41 43 0 0 0
SMALL
MULLIKEN_CHARGES

@<TRIPOS>ATOM
1		C		2.9991		3.2090		0.1385		C.3		1		UNL1		-0.5603
2		C		1.8601		2.2321		0.0355		C.ar		1		UNL1		0.1180
3		C		0.5375		2.6073		0.1613		C.ar		1		UNL1		0.0028
4		N		-0.5151		1.7711		0.0784		N.ar		1		UNL1		-0.5007
5		C		-0.1963		0.4961		-0.1443		C.ar		1		UNL1		0.6984
6		N		-1.1908		-0.4635		-0.2477		N.pl3		1		UNL1		-0.7706
7		C		-2.5762		-0.3941		-0.1391		C.ar		1		UNL1		0.3847
8		C		-3.2871		-1.6052		-0.2778		C.ar		1		UNL1		-0.2071
9		C		-4.6678		-1.6379		-0.1822		C.ar		1		UNL1		-0.1413
10		C		-5.3887		-0.4539		0.0561		C.ar		1		UNL1		0.1288
11		C		-6.8152		-0.4803		0.1575		C.1		1		UNL1		0.2243
12		N		-7.9765		-0.5039		0.2403		N.1		1		UNL1		-0.4897
13		C		-4.6818		0.7528		0.1926		C.ar		1		UNL1		-0.1545
14		C		-3.2969		0.7927		0.0977		C.ar		1		UNL1		-0.1603
15		N		1.0390		-0.0181		-0.2895		N.ar		1		UNL1		-0.6068
16		C		2.0646		0.8379		-0.2003		C.ar		1		UNL1		0.5338
17		N		3.3212		0.3354		-0.3438		N.pl3		1		UNL1		-0.6724
18		C		3.6245		-1.0634		-0.6584		C.3		1		UNL1		0.0620
19		C		3.5224		-1.9798		0.5780		C.3		1		UNL1		-0.2633
20		C		4.8372		-1.7431		1.3573		C.3		1		UNL1		-0.2739
21		C		5.8761		-1.2579		0.3009		C.3		1		UNL1		-0.2779
22		C		5.1077		-1.1950		-1.0445		C.3		1		UNL1		-0.3095
23		H		3.6839		2.9610		0.9620		H		1		UNL1		0.1603
24		H		2.6242		4.2208		0.3217		H		1		UNL1		0.1705
25		H		3.5980		3.2473		-0.7832		H		1		UNL1		0.1584
26		H		0.2909		3.6535		0.3424		H		1		UNL1		0.1370
27		H		-0.8028		-1.3825		-0.4160		H		1		UNL1		0.3398
28		H		-2.7412		-2.5280		-0.4611		H		1		UNL1		0.1313
29		H		-5.1981		-2.5787		-0.2903		H		1		UNL1		0.1535
30		H		-5.2298		1.6719		0.3759		H		1		UNL1		0.1543
31		H		-2.7576		1.7230		0.2040		H		1		UNL1		0.1893
32		H		4.0859		0.9925		-0.3301		H		1		UNL1		0.3317
33		H		2.9486		-1.3855		-1.4565		H		1		UNL1		0.1531
34		H		3.4643		-3.0194		0.2299		H		1		UNL1		0.1345
35		H		2.6219		-1.7796		1.1631		H		1		UNL1		0.1610
36		H		5.1677		-2.6488		1.8754		H		1		UNL1		0.1431
37		H		4.6912		-0.9773		2.1266		H		1		UNL1		0.1440
38		H		6.7410		-1.9251		0.2309		H		1		UNL1		0.1468
39		H		6.2715		-0.2720		0.5729		H		1		UNL1		0.1349
40		H		5.4475		-0.3901		-1.7072		H		1		UNL1		0.1388
41		H		5.2331		-2.1334		-1.5961		H		1		UNL1		0.1533
@<TRIPOS>BOND
1		40		22		1
2		41		22		1
3		33		18		1
4		22		18		1
5		22		21		1
6		25		1		1
7		18		17		1
8		18		19		1
9		28		8		1
10		27		6		1
11		17		32		1
12		17		16		1
13		29		9		1
14		15		16		ar
15		15		5		ar
16		8		9		ar
17		8		7		ar
18		6		5		1
19		6		7		1
20		16		2		ar
21		9		10		ar
22		5		4		ar
23		7		14		ar
24		2		1		1
25		2		3		ar
26		10		11		1
27		10		13		ar
28		4		3		ar
29		14		13		ar
30		14		31		1
31		1		24		1
32		1		23		1
33		11		12		3
34		3		26		1
35		13		30		1
36		34		19		1
37		38		21		1
38		21		39		1
39		21		20		1
40		19		35		1
41		19		20		1
42		20		36		1
43		20		37		1

