@<TRIPOS>MOLECULE
GSX-2011-BMC-5117-10j
 37 39 0 0 0
SMALL
MULLIKEN_CHARGES
****
Gaussian 16 #p B3LYP/6-31G* opt
@<TRIPOS>ATOM
1		N		9.1463		-0.2216		0.7865		N.1		1		UNL1		-0.4824
2		C		8.0112		-0.1187		0.5497		C.1		1		UNL1		0.2288
3		C		6.6161		0.0094		0.2578		C.ar		1		UNL1		0.1324
4		C		5.6819		-0.8694		0.8297		C.ar		1		UNL1		-0.1529
5		C		4.3244		-0.7561		0.5554		C.ar		1		UNL1		-0.1587
6		C		3.8698		0.2551		-0.3103		C.ar		1		UNL1		0.3815
7		N		2.5299		0.4582		-0.6525		N.pl3		1		UNL1		-0.7658
8		C		1.3722		-0.1942		-0.2920		C.ar		1		UNL1		0.7081
9		N		1.4098		-1.2393		0.5403		N.ar		1		UNL1		-0.4789
10		C		0.2245		-1.7986		0.8204		C.ar		1		UNL1		0.0707
11		C		-0.9812		-1.3453		0.3046		C.ar		1		UNL1		-0.1889
12		C		-0.9069		-0.2432		-0.5567		C.ar		1		UNL1		0.3276
13		C		-2.1322		0.3960		-1.2264		C.3		1		UNL1		0.0075
14		O		-1.7346		1.4128		-2.1154		O.3		1		UNL1		-0.6464
15		C		-3.0943		0.9494		-0.1713		C.ar		1		UNL1		0.1371
16		C		-2.8805		2.2429		0.3240		C.ar		1		UNL1		-0.1641
17		C		-3.7150		2.8006		1.2884		C.ar		1		UNL1		-0.1227
18		C		-4.7984		2.0689		1.7786		C.ar		1		UNL1		-0.1275
19		C		-5.0407		0.7839		1.2978		C.ar		1		UNL1		-0.1457
20		C		-4.1906		0.2433		0.3331		C.ar		1		UNL1		0.0151
21		BR		-4.5947		-1.5345		-0.2885		Br		1		UNL1		-0.1277
22		N		0.2588		0.3262		-0.8557		N.ar		1		UNL1		-0.6082
23		C		4.8070		1.1371		-0.8848		C.ar		1		UNL1		-0.2060
24		C		6.1588		1.0190		-0.6074		C.ar		1		UNL1		-0.1398
25		H		6.0268		-1.6516		1.4985		H		1		UNL1		0.1603
26		H		3.6121		-1.4361		0.9992		H		1		UNL1		0.1908
27		H		2.3507		1.2254		-1.2874		H		1		UNL1		0.3444
28		H		0.2545		-2.6537		1.4930		H		1		UNL1		0.1614
29		H		-1.9238		-1.8224		0.5411		H		1		UNL1		0.1734
30		H		-2.6537		-0.3937		-1.7844		H		1		UNL1		0.1773
31		H		-0.7586		1.4490		-2.0521		H		1		UNL1		0.4114
32		H		-2.0532		2.8121		-0.0868		H		1		UNL1		0.1492
33		H		-3.5242		3.8060		1.6527		H		1		UNL1		0.1408
34		H		-5.4598		2.4947		2.5278		H		1		UNL1		0.1436
35		H		-5.8826		0.2031		1.6584		H		1		UNL1		0.1564
36		H		4.4651		1.9219		-1.5557		H		1		UNL1		0.1380
37		H		6.8682		1.7057		-1.0575		H		1		UNL1		0.1601
@<TRIPOS>BOND
1		14		31		1
2		14		13		1
3		30		13		1
4		36		23		1
5		27		7		1
6		13		12		1
7		13		15		1
8		37		24		1
9		23		24		ar
10		23		6		ar
11		22		12		ar
12		22		8		ar
13		7		6		1
14		7		8		1
15		24		3		ar
16		12		11		ar
17		6		5		ar
18		8		9		ar
19		21		20		1
20		15		16		ar
21		15		20		ar
22		32		16		1
23		3		2		1
24		3		4		ar
25		11		29		1
26		11		10		ar
27		16		17		ar
28		20		19		ar
29		9		10		ar
30		2		1		3
31		5		4		ar
32		5		26		1
33		10		28		1
34		4		25		1
35		17		33		1
36		17		18		ar
37		19		35		1
38		19		18		ar
39		18		34		1

