@<TRIPOS>MOLECULE
HYP-2005-CJCU-254-11
 50 52 0 0 0
SMALL
MULLIKEN_CHARGES
****
Gaussian 16 #p B3LYP/6-31G* opt
@<TRIPOS>ATOM
1		C		-1.5610		-3.2634		1.1326		C.3		1		UNL1		-0.4594
2		C		-0.0716		-2.9728		1.2851		C.3		1		UNL1		-0.0437
3		O		0.6745		-3.2871		0.1045		O.3		1		UNL1		-0.4423
4		C		0.6638		-2.3367		-0.9174		C.3		1		UNL1		0.0909
5		N		1.6170		-1.2217		-0.6782		N.ar		1		UNL1		-0.5731
6		C		1.2686		0.1331		-0.5408		C.ar		1		UNL1		0.3120
7		C		-0.1250		0.5261		-1.0075		C.3		1		UNL1		-0.4678
8		C		-1.2446		0.5364		0.0282		C.ar		1		UNL1		0.1195
9		C		-0.9701		0.5679		1.3807		C.ar		1		UNL1		-0.2045
10		C		-2.0021		0.6114		2.3491		C.ar		1		UNL1		-0.1374
11		C		-3.3174		0.6248		1.9561		C.ar		1		UNL1		-0.1877
12		C		-3.6566		0.6085		0.5764		C.ar		1		UNL1		0.1373
13		C		-5.0122		0.6363		0.1538		C.ar		1		UNL1		-0.1928
14		C		-5.3413		0.6388		-1.1823		C.ar		1		UNL1		-0.1315
15		C		-4.3183		0.6161		-2.1574		C.ar		1		UNL1		-0.1318
16		C		-2.9927		0.5836		-1.7811		C.ar		1		UNL1		-0.2024
17		C		-2.6127		0.5716		-0.4096		C.ar		1		UNL1		0.0762
18		C		2.1741		1.0678		-0.1149		C.ar		1		UNL1		-0.0048
19		C		1.8426		2.5464		0.0701		C.3		1		UNL1		-0.1424
20		C		2.5426		3.4263		-0.9857		C.3		1		UNL1		-0.4519
21		C		2.1533		3.0420		1.4985		C.3		1		UNL1		-0.4573
22		C		3.5668		0.6599		0.1106		C.ar		1		UNL1		0.6020
23		O		4.4854		1.3873		0.4726		O.2		1		UNL1		-0.5146
24		N		3.8324		-0.6815		-0.1762		N.ar		1		UNL1		-0.6983
25		C		2.9537		-1.6487		-0.6216		C.ar		1		UNL1		0.7881
26		O		3.3109		-2.7702		-0.9318		O.2		1		UNL1		-0.5012
27		H		-2.0796		-3.0756		2.0797		H		1		UNL1		0.1483
28		H		-1.7179		-4.3094		0.8501		H		1		UNL1		0.1600
29		H		-2.0273		-2.6254		0.3738		H		1		UNL1		0.1556
30		H		0.3618		-3.6080		2.0636		H		1		UNL1		0.1548
31		H		0.0962		-1.9291		1.5787		H		1		UNL1		0.1348
32		H		-0.3278		-1.9091		-1.0666		H		1		UNL1		0.1490
33		H		0.9889		-2.8629		-1.8147		H		1		UNL1		0.1860
34		H		-0.0518		1.5243		-1.4525		H		1		UNL1		0.1962
35		H		-0.3981		-0.1224		-1.8438		H		1		UNL1		0.1727
36		H		0.0629		0.5610		1.7145		H		1		UNL1		0.1465
37		H		-1.7416		0.6338		3.4035		H		1		UNL1		0.1381
38		H		-4.1173		0.6559		2.6918		H		1		UNL1		0.1356
39		H		-5.7906		0.6599		0.9128		H		1		UNL1		0.1359
40		H		-6.3827		0.6619		-1.4906		H		1		UNL1		0.1368
41		H		-4.5793		0.6265		-3.2121		H		1		UNL1		0.1361
42		H		-2.2306		0.5794		-2.5532		H		1		UNL1		0.1327
43		H		0.7632		2.6678		-0.0612		H		1		UNL1		0.1308
44		H		2.2537		4.4761		-0.8563		H		1		UNL1		0.1405
45		H		2.2667		3.1234		-2.0031		H		1		UNL1		0.1323
46		H		3.6289		3.3546		-0.8883		H		1		UNL1		0.1819
47		H		1.6252		2.4434		2.2500		H		1		UNL1		0.1350
48		H		1.8213		4.0812		1.6075		H		1		UNL1		0.1378
49		H		3.2233		2.9922		1.7071		H		1		UNL1		0.1896
50		H		4.8020		-0.9703		-0.1088		H		1		UNL1		0.3520
@<TRIPOS>BOND
1		41		15		1
2		42		16		1
3		15		16		ar
4		15		14		ar
5		45		20		1
6		35		7		1
7		33		4		1
8		16		17		ar
9		40		14		1
10		34		7		1
11		14		13		ar
12		32		4		1
13		7		6		1
14		7		8		1
15		20		46		1
16		20		44		1
17		20		19		1
18		26		25		2
19		4		5		1
20		4		3		1
21		5		25		ar
22		5		6		ar
23		25		24		ar
24		6		18		ar
25		17		8		ar
26		17		12		ar
27		24		50		1
28		24		22		ar
29		18		19		1
30		18		22		ar
31		43		19		1
32		8		9		ar
33		19		21		1
34		3		2		1
35		22		23		2
36		13		12		ar
37		13		39		1
38		29		1		1
39		12		11		ar
40		28		1		1
41		1		2		1
42		1		27		1
43		2		31		1
44		2		30		1
45		9		36		1
46		9		10		ar
47		21		48		1
48		21		49		1
49		21		47		1
50		11		10		ar
51		11		38		1
52		10		37		1

