@<TRIPOS>MOLECULE
HYP-2004-BMCL-3173-4I
 56 59 0 0 0
SMALL
MULLIKEN_CHARGES
****
Gaussian 16 #p B3LYP/6-31G* opt
@<TRIPOS>ATOM
1		C		3.4120		-3.6403		0.3402		C.3		1		UNL1		-0.4508
2		C		2.8144		-2.9897		-0.9221		C.3		1		UNL1		-0.3263
3		C		1.7520		-1.9627		-0.6123		C.ar		1		UNL1		0.0553
4		C		1.9070		-0.5970		-0.6700		C.ar		1		UNL1		0.1866
5		C		3.1812		0.0894		-1.1109		C.3		1		UNL1		-0.4134
6		C		4.1731		0.4356		-0.0045		C.ar		1		UNL1		0.1280
7		C		3.9051		0.1802		1.3247		C.ar		1		UNL1		-0.1911
8		C		4.8303		0.5062		2.3460		C.ar		1		UNL1		-0.1364
9		C		6.0315		1.0927		2.0334		C.ar		1		UNL1		-0.1904
10		C		6.3564		1.3838		0.6813		C.ar		1		UNL1		0.1379
11		C		7.5911		1.9944		0.3348		C.ar		1		UNL1		-0.1942
12		C		7.9011		2.2804		-0.9753		C.ar		1		UNL1		-0.1330
13		C		6.9798		1.9652		-2.0003		C.ar		1		UNL1		-0.1337
14		C		5.7738		1.3705		-1.6974		C.ar		1		UNL1		-0.1967
15		C		5.4192		1.0573		-0.3558		C.ar		1		UNL1		0.0717
16		N		0.9077		0.2930		-0.3198		N.ar		1		UNL1		-0.4940
17		C		-0.2463		-0.1955		0.0162		C.ar		1		UNL1		0.3150
18		S		-1.4933		1.0313		0.3974		S.3		1		UNL1		0.1991
19		C		-2.7013		0.1227		1.4581		C.3		1		UNL1		-0.5657
20		C		-3.7099		-0.6879		0.6483		C.2		1		UNL1		0.4272
21		O		-3.3750		-1.8098		0.2654		O.2		1		UNL1		-0.4777
22		C		-5.0403		-0.1349		0.3227		C.ar		1		UNL1		0.0836
23		C		-5.9480		-0.9600		-0.3772		C.ar		1		UNL1		-0.1567
24		C		-7.2065		-0.5057		-0.7171		C.ar		1		UNL1		-0.1708
25		C		-7.6006		0.8022		-0.3744		C.ar		1		UNL1		0.3924
26		O		-8.8514		1.1543		-0.7534		O.3		1		UNL1		-0.4939
27		C		-9.3183		2.4644		-0.4493		C.3		1		UNL1		-0.2240
28		C		-6.7108		1.6399		0.3141		C.ar		1		UNL1		-0.1995
29		C		-5.4472		1.1654		0.6576		C.ar		1		UNL1		-0.1846
30		N		-0.5245		-1.5222		0.0586		N.ar		1		UNL1		-0.6645
31		C		0.4526		-2.5060		-0.2275		C.ar		1		UNL1		0.5718
32		O		0.1542		-3.6928		-0.1571		O.2		1		UNL1		-0.5233
33		H		3.9096		-2.8955		0.9703		H		1		UNL1		0.1486
34		H		2.6262		-4.1276		0.9247		H		1		UNL1		0.1706
35		H		4.1514		-4.4006		0.0636		H		1		UNL1		0.1413
36		H		3.6182		-2.5456		-1.5169		H		1		UNL1		0.1381
37		H		2.3541		-3.7760		-1.5317		H		1		UNL1		0.1652
38		H		2.8781		1.0168		-1.6128		H		1		UNL1		0.1793
39		H		3.6871		-0.5223		-1.8656		H		1		UNL1		0.1647
40		H		2.9622		-0.2792		1.6019		H		1		UNL1		0.1337
41		H		4.5788		0.2862		3.3801		H		1		UNL1		0.1283
42		H		6.7482		1.3442		2.8116		H		1		UNL1		0.1263
43		H		8.2917		2.2345		1.1314		H		1		UNL1		0.1282
44		H		8.8497		2.7482		-1.2247		H		1		UNL1		0.1282
45		H		7.2248		2.1944		-3.0340		H		1		UNL1		0.1279
46		H		5.0819		1.1425		-2.5014		H		1		UNL1		0.1321
47		H		-3.1615		0.8932		2.0785		H		1		UNL1		0.2007
48		H		-2.1555		-0.5576		2.1166		H		1		UNL1		0.2182
49		H		-5.6321		-1.9633		-0.6418		H		1		UNL1		0.1764
50		H		-7.9115		-1.1342		-1.2516		H		1		UNL1		0.1552
51		H		-9.3424		2.6381		0.6336		H		1		UNL1		0.1611
52		H		-8.6976		3.2306		-0.9297		H		1		UNL1		0.1627
53		H		-10.3324		2.5164		-0.8477		H		1		UNL1		0.1819
54		H		-6.9904		2.6516		0.5824		H		1		UNL1		0.1446
55		H		-4.7774		1.8393		1.1816		H		1		UNL1		0.1426
56		H		-1.4801		-1.8670		0.2129		H		1		UNL1		0.3960
@<TRIPOS>BOND
1		45		13		1
2		46		14		1
3		13		14		ar
4		13		12		ar
5		39		5		1
6		14		15		ar
7		38		5		1
8		37		2		1
9		36		2		1
10		50		24		1
11		44		12		1
12		5		4		1
13		5		6		1
14		12		11		ar
15		52		27		1
16		2		3		1
17		2		1		1
18		53		27		1
19		26		27		1
20		26		25		1
21		24		23		ar
22		24		25		ar
23		4		3		ar
24		4		16		ar
25		49		23		1
26		3		31		ar
27		27		51		1
28		23		22		ar
29		25		28		ar
30		15		6		ar
31		15		10		ar
32		16		17		ar
33		31		32		2
34		31		30		ar
35		6		7		ar
36		17		30		ar
37		17		18		1
38		30		56		1
39		35		1		1
40		21		20		2
41		28		54		1
42		28		29		ar
43		22		20		1
44		22		29		ar
45		11		10		ar
46		11		43		1
47		1		34		1
48		1		33		1
49		18		19		1
50		20		19		1
51		29		55		1
52		10		9		ar
53		7		40		1
54		7		8		ar
55		19		47		1
56		19		48		1
57		9		8		ar
58		9		42		1
59		8		41		1

