@<TRIPOS>MOLECULE
HYP-2005-CJCU-254-10
 50 52 0 0 0
SMALL
MULLIKEN_CHARGES
****
Gaussian 16 #p B3LYP/6-31G* opt
@<TRIPOS>ATOM
1		C		-1.3208		4.6849		-1.3238		C.3		1		UNL1		-0.4428
2		C		-1.4962		3.4052		-0.5014		C.3		1		UNL1		-0.2546
3		C		-1.9200		2.2019		-1.3682		C.3		1		UNL1		-0.3381
4		C		-2.1741		0.9380		-0.5765		C.ar		1		UNL1		-0.0169
5		C		-1.2550		-0.0346		-0.3012		C.ar		1		UNL1		0.3226
6		C		0.1804		0.0680		-0.7710		C.3		1		UNL1		-0.4588
7		C		1.2139		0.4077		0.3018		C.ar		1		UNL1		0.1080
8		C		0.8408		0.8239		1.5642		C.ar		1		UNL1		-0.1945
9		C		1.8009		1.1507		2.5521		C.ar		1		UNL1		-0.1364
10		C		3.1414		1.0584		2.2713		C.ar		1		UNL1		-0.1869
11		C		3.5802		0.6440		0.9850		C.ar		1		UNL1		0.1369
12		C		4.9628		0.5502		0.6745		C.ar		1		UNL1		-0.1925
13		C		5.3869		0.1594		-0.5751		C.ar		1		UNL1		-0.1315
14		C		4.4366		-0.1527		-1.5737		C.ar		1		UNL1		-0.1328
15		C		3.0869		-0.0750		-1.3041		C.ar		1		UNL1		-0.2002
16		C		2.6103		0.3175		-0.0220		C.ar		1		UNL1		0.0758
17		N		-1.5929		-1.1675		0.4599		N.ar		1		UNL1		-0.5667
18		C		-0.6963		-2.3197		0.6962		C.3		1		UNL1		0.0754
19		O		-1.0509		-3.4549		-0.0450		O.3		1		UNL1		-0.4428
20		C		-0.7108		-3.4586		-1.4315		C.3		1		UNL1		-0.0403
21		C		0.7532		-3.8122		-1.6845		C.3		1		UNL1		-0.4683
22		C		-2.8569		-1.3167		1.0558		C.ar		1		UNL1		0.7896
23		O		-3.1435		-2.2449		1.7907		O.2		1		UNL1		-0.5055
24		N		-3.7533		-0.3133		0.7454		N.ar		1		UNL1		-0.7024
25		C		-3.5353		0.8197		-0.0406		C.ar		1		UNL1		0.6056
26		O		-4.4390		1.6269		-0.2189		O.2		1		UNL1		-0.5148
27		H		-1.0248		5.5271		-0.6883		H		1		UNL1		0.1455
28		H		-2.2541		4.9600		-1.8295		H		1		UNL1		0.1508
29		H		-0.5487		4.5624		-2.0940		H		1		UNL1		0.1374
30		H		-0.5617		3.1677		0.0237		H		1		UNL1		0.1359
31		H		-2.2604		3.5630		0.2695		H		1		UNL1		0.1542
32		H		-2.8573		2.4565		-1.8739		H		1		UNL1		0.1738
33		H		-1.1742		2.0379		-2.1543		H		1		UNL1		0.1340
34		H		0.4656		-0.8670		-1.2644		H		1		UNL1		0.1716
35		H		0.2280		0.8279		-1.5548		H		1		UNL1		0.1887
36		H		-0.2122		0.9067		1.8140		H		1		UNL1		0.1425
37		H		1.4645		1.4717		3.5338		H		1		UNL1		0.1391
38		H		3.8854		1.3031		3.0253		H		1		UNL1		0.1353
39		H		5.6853		0.7975		1.4487		H		1		UNL1		0.1358
40		H		6.4481		0.0931		-0.7980		H		1		UNL1		0.1361
41		H		4.7730		-0.4536		-2.5621		H		1		UNL1		0.1348
42		H		2.3805		-0.3087		-2.0938		H		1		UNL1		0.1313
43		H		0.3310		-1.9990		0.5222		H		1		UNL1		0.1579
44		H		-0.8183		-2.6056		1.7388		H		1		UNL1		0.1946
45		H		-1.3601		-4.2194		-1.8753		H		1		UNL1		0.1594
46		H		-0.9779		-2.4994		-1.8992		H		1		UNL1		0.1320
47		H		0.9914		-4.7787		-1.2294		H		1		UNL1		0.1678
48		H		0.9446		-3.8802		-2.7620		H		1		UNL1		0.1478
49		H		1.4420		-3.0659		-1.2715		H		1		UNL1		0.1541
50		H		-4.6736		-0.4089		1.1598		H		1		UNL1		0.3527
@<TRIPOS>BOND
1		48		21		1
2		41		14		1
3		33		3		1
4		29		1		1
5		42		15		1
6		46		20		1
7		45		20		1
8		32		3		1
9		28		1		1
10		21		20		1
11		21		49		1
12		21		47		1
13		14		15		ar
14		14		13		ar
15		35		6		1
16		20		19		1
17		3		4		1
18		3		2		1
19		1		27		1
20		1		2		1
21		15		16		ar
22		34		6		1
23		40		13		1
24		6		5		1
25		6		7		1
26		4		5		ar
27		4		25		ar
28		13		12		ar
29		2		30		1
30		2		31		1
31		5		17		ar
32		26		25		2
33		19		18		1
34		25		24		ar
35		16		7		ar
36		16		11		ar
37		7		8		ar
38		17		18		1
39		17		22		ar
40		43		18		1
41		12		11		ar
42		12		39		1
43		18		44		1
44		24		22		ar
45		24		50		1
46		11		10		ar
47		22		23		2
48		8		36		1
49		8		9		ar
50		10		9		ar
51		10		38		1
52		9		37		1

