@<TRIPOS>MOLECULE
HYP-2005-CJCU-254-20
 47 49 0 0 0
SMALL
MULLIKEN_CHARGES
****
Gaussian 16 #p B3LYP/6-31G* opt
@<TRIPOS>ATOM
1		C		-0.2765		4.7043		-1.0667		C.3		1		UNL1		-0.4421
2		C		-1.2199		3.5019		-0.9688		C.3		1		UNL1		-0.2535
3		C		-0.7408		2.4606		0.0644		C.3		1		UNL1		-0.3380
4		C		-1.6894		1.2941		0.2085		C.ar		1		UNL1		0.0012
5		C		-1.5520		0.0951		-0.4268		C.ar		1		UNL1		0.3263
6		C		-0.3407		-0.1988		-1.3031		C.3		1		UNL1		-0.4361
7		C		0.9709		-0.3880		-0.5461		C.ar		1		UNL1		0.1814
8		C		1.0426		-1.2255		0.6016		C.ar		1		UNL1		-0.1760
9		C		2.2376		-1.4227		1.2527		C.ar		1		UNL1		-0.1974
10		C		3.4353		-0.8053		0.8020		C.ar		1		UNL1		0.1382
11		C		4.6841		-0.9903		1.4527		C.ar		1		UNL1		-0.1917
12		C		5.8222		-0.3746		0.9816		C.ar		1		UNL1		-0.1345
13		C		5.7621		0.4565		-0.1640		C.ar		1		UNL1		-0.1368
14		C		4.5659		0.6564		-0.8161		C.ar		1		UNL1		-0.1905
15		C		3.3742		0.0349		-0.3556		C.ar		1		UNL1		0.1435
16		C		2.1227		0.2215		-1.0014		C.ar		1		UNL1		-0.2749
17		N		-2.5218		-0.9170		-0.2847		N.ar		1		UNL1		-0.5748
18		C		-2.4724		-2.1619		-1.0291		C.3		1		UNL1		0.0759
19		O		-1.4406		-2.9737		-0.5119		O.3		1		UNL1		-0.4533
20		C		-1.3916		-4.2454		-1.1370		C.3		1		UNL1		-0.2056
21		C		-3.6229		-0.7882		0.5825		C.ar		1		UNL1		0.7853
22		O		-4.4573		-1.6642		0.7472		O.2		1		UNL1		-0.5152
23		N		-3.6964		0.4291		1.2199		N.ar		1		UNL1		-0.6998
24		C		-2.8385		1.5270		1.0839		C.ar		1		UNL1		0.6074
25		O		-3.0750		2.5651		1.6880		O.2		1		UNL1		-0.5128
26		H		0.7339		4.3970		-1.3648		H		1		UNL1		0.1371
27		H		-0.6352		5.4319		-1.8036		H		1		UNL1		0.1433
28		H		-0.1947		5.2190		-0.1020		H		1		UNL1		0.1520
29		H		-2.2232		3.8403		-0.6852		H		1		UNL1		0.1593
30		H		-1.3166		3.0242		-1.9543		H		1		UNL1		0.1220
31		H		-0.6682		2.9542		1.0399		H		1		UNL1		0.1683
32		H		0.2645		2.1169		-0.1930		H		1		UNL1		0.1485
33		H		-0.5128		-1.0891		-1.9098		H		1		UNL1		0.1812
34		H		-0.2228		0.6316		-2.0067		H		1		UNL1		0.1744
35		H		0.1451		-1.7234		0.9518		H		1		UNL1		0.1569
36		H		2.2785		-2.0644		2.1299		H		1		UNL1		0.1327
37		H		4.7262		-1.6284		2.3323		H		1		UNL1		0.1313
38		H		6.7720		-0.5236		1.4879		H		1		UNL1		0.1312
39		H		6.6667		0.9375		-0.5264		H		1		UNL1		0.1311
40		H		4.5180		1.2952		-1.6951		H		1		UNL1		0.1288
41		H		2.0859		0.8655		-1.8787		H		1		UNL1		0.1236
42		H		-3.4480		-2.6379		-0.9059		H		1		UNL1		0.1973
43		H		-2.3053		-1.9523		-2.0956		H		1		UNL1		0.1403
44		H		-1.2016		-4.1602		-2.2185		H		1		UNL1		0.1369
45		H		-0.5680		-4.7919		-0.6736		H		1		UNL1		0.1740
46		H		-2.3277		-4.8035		-0.9871		H		1		UNL1		0.1498
47		H		-4.4937		0.5505		1.8342		H		1		UNL1		0.3539
@<TRIPOS>BOND
1		44		20		1
2		43		18		1
3		34		6		1
4		30		2		1
5		33		6		1
6		41		16		1
7		27		1		1
8		40		14		1
9		26		1		1
10		6		7		1
11		6		5		1
12		20		46		1
13		20		45		1
14		20		19		1
15		1		2		1
16		1		28		1
17		18		42		1
18		18		19		1
19		18		17		1
20		16		7		ar
21		16		15		ar
22		2		29		1
23		2		3		1
24		14		15		ar
25		14		13		ar
26		7		8		ar
27		39		13		1
28		5		17		ar
29		5		4		ar
30		15		10		ar
31		17		21		ar
32		32		3		1
33		13		12		ar
34		3		4		1
35		3		31		1
36		4		24		ar
37		21		22		2
38		21		23		ar
39		8		35		1
40		8		9		ar
41		10		9		ar
42		10		11		ar
43		12		11		ar
44		12		38		1
45		24		23		ar
46		24		25		2
47		23		47		1
48		9		36		1
49		11		37		1

