@<TRIPOS>MOLECULE
HYP-2004-BMCL-3173-4T
 52 54 0 0 0
SMALL
MULLIKEN_CHARGES
****
Gaussian 16 #p B3LYP/6-31G* opt
@<TRIPOS>ATOM
1		C		-5.1294		-0.1673		-2.6570		C.3		1		UNL1		-0.4665
2		C		-5.7497		0.3844		-1.3845		C.3		1		UNL1		-0.0547
3		O		-4.9801		-0.0062		-0.2089		O.3		1		UNL1		-0.4702
4		C		-5.2410		-1.2220		0.3315		C.2		1		UNL1		0.6430
5		O		-6.0923		-1.9791		-0.0691		O.2		1		UNL1		-0.4461
6		C		-4.3216		-1.4991		1.5081		C.3		1		UNL1		-0.5572
7		S		-2.6548		-2.1320		1.0254		S.3		1		UNL1		0.2170
8		C		-1.6538		-0.6596		0.8615		C.ar		1		UNL1		0.3084
9		N		-0.3819		-0.8237		1.0559		N.ar		1		UNL1		-0.4909
10		C		0.4445		0.2698		0.8729		C.ar		1		UNL1		0.1835
11		C		1.9021		-0.0508		1.1361		C.3		1		UNL1		-0.4232
12		C		2.7487		-0.3837		-0.0884		C.ar		1		UNL1		0.1273
13		C		2.2015		-0.4786		-1.3516		C.ar		1		UNL1		-0.1935
14		C		2.9914		-0.7973		-2.4828		C.ar		1		UNL1		-0.1355
15		C		4.3387		-1.0224		-2.3467		C.ar		1		UNL1		-0.1897
16		C		4.9531		-0.9449		-1.0679		C.ar		1		UNL1		0.1379
17		C		6.3441		-1.1799		-0.9033		C.ar		1		UNL1		-0.1940
18		C		6.9355		-1.1123		0.3375		C.ar		1		UNL1		-0.1326
19		C		6.1521		-0.8054		1.4736		C.ar		1		UNL1		-0.1333
20		C		4.8000		-0.5696		1.3474		C.ar		1		UNL1		-0.1966
21		C		4.1541		-0.6265		0.0813		C.ar		1		UNL1		0.0720
22		C		-0.0099		1.5235		0.5193		C.ar		1		UNL1		0.0640
23		C		0.8963		2.7279		0.3098		C.3		1		UNL1		-0.1451
24		C		0.8074		3.2773		-1.1293		C.3		1		UNL1		-0.4569
25		C		0.6183		3.8348		1.3478		C.3		1		UNL1		-0.4536
26		C		-1.4444		1.7085		0.3267		C.ar		1		UNL1		0.5698
27		O		-2.0359		2.7389		0.0148		O.2		1		UNL1		-0.5311
28		N		-2.2049		0.5291		0.5130		N.ar		1		UNL1		-0.6588
29		H		-4.0919		0.1650		-2.7638		H		1		UNL1		0.1676
30		H		-5.6946		0.1934		-3.5237		H		1		UNL1		0.1615
31		H		-5.1571		-1.2605		-2.6612		H		1		UNL1		0.1814
32		H		-5.7284		1.4755		-1.3596		H		1		UNL1		0.1749
33		H		-6.7741		0.0322		-1.2476		H		1		UNL1		0.1806
34		H		-4.2067		-0.6175		2.1440		H		1		UNL1		0.2151
35		H		-4.7645		-2.3067		2.0934		H		1		UNL1		0.2275
36		H		2.3667		0.7790		1.6805		H		1		UNL1		0.1670
37		H		1.9098		-0.9108		1.8161		H		1		UNL1		0.1856
38		H		1.1390		-0.3067		-1.4896		H		1		UNL1		0.1305
39		H		2.5194		-0.8610		-3.4595		H		1		UNL1		0.1297
40		H		4.9529		-1.2653		-3.2104		H		1		UNL1		0.1283
41		H		6.9368		-1.4182		-1.7836		H		1		UNL1		0.1298
42		H		8.0009		-1.2955		0.4478		H		1		UNL1		0.1300
43		H		6.6200		-0.7566		2.4533		H		1		UNL1		0.1294
44		H		4.2197		-0.3420		2.2355		H		1		UNL1		0.1323
45		H		1.9284		2.3931		0.4522		H		1		UNL1		0.1371
46		H		1.5142		4.1062		-1.2543		H		1		UNL1		0.1383
47		H		1.0664		2.5037		-1.8608		H		1		UNL1		0.1415
48		H		-0.1988		3.6435		-1.3464		H		1		UNL1		0.1788
49		H		1.3176		4.6674		1.2066		H		1		UNL1		0.1394
50		H		0.7425		3.4599		2.3706		H		1		UNL1		0.1345
51		H		-0.4000		4.2177		1.2416		H		1		UNL1		0.1796
52		H		-3.1952		0.6104		0.2821		H		1		UNL1		0.3861
@<TRIPOS>BOND
1		30		1		1
2		39		14		1
3		40		15		1
4		29		1		1
5		31		1		1
6		1		2		1
7		14		15		ar
8		14		13		ar
9		15		16		ar
10		47		24		1
11		41		17		1
12		38		13		1
13		2		32		1
14		2		33		1
15		2		3		1
16		13		12		ar
17		48		24		1
18		46		24		1
19		24		23		1
20		16		17		ar
21		16		21		ar
22		17		18		ar
23		3		4		1
24		12		21		ar
25		12		11		1
26		5		4		2
27		27		26		2
28		21		20		ar
29		52		28		1
30		23		45		1
31		23		22		1
32		23		25		1
33		26		28		ar
34		26		22		ar
35		4		6		1
36		18		42		1
37		18		19		ar
38		28		8		ar
39		22		10		ar
40		8		7		1
41		8		9		ar
42		10		9		ar
43		10		11		1
44		7		6		1
45		11		36		1
46		11		37		1
47		49		25		1
48		51		25		1
49		20		19		ar
50		20		44		1
51		25		50		1
52		19		43		1
53		6		35		1
54		6		34		1

