@<TRIPOS>MOLECULE
HYP-2005-CJCU-254-24
 54 57 0 0 0
SMALL
MULLIKEN_CHARGES
****
Gaussian 16 #p B3LYP/6-31G* opt
@<TRIPOS>ATOM
1		C		-1.7097		4.3276		-2.0598		C.3		1		UNL1		-0.4449
2		C		-2.1113		3.3913		-0.9061		C.3		1		UNL1		-0.3334
3		C		-0.9251		2.7862		-0.1879		C.ar		1		UNL1		-0.0141
4		C		-0.3873		1.5623		-0.4594		C.ar		1		UNL1		0.3333
5		C		-0.9400		0.6613		-1.5439		C.3		1		UNL1		-0.4606
6		C		-1.8979		-0.4301		-1.0732		C.ar		1		UNL1		0.1521
7		C		-2.0449		-1.5935		-1.8803		C.ar		1		UNL1		-0.1831
8		C		-2.9260		-2.5905		-1.5349		C.ar		1		UNL1		-0.1911
9		C		-3.7148		-2.4940		-0.3571		C.ar		1		UNL1		0.1382
10		C		-4.6323		-3.5053		0.0333		C.ar		1		UNL1		-0.1921
11		C		-5.3767		-3.3740		1.1842		C.ar		1		UNL1		-0.1338
12		C		-5.2357		-2.2232		1.9982		C.ar		1		UNL1		-0.1360
13		C		-4.3534		-1.2262		1.6468		C.ar		1		UNL1		-0.1894
14		C		-3.5712		-1.3307		0.4653		C.ar		1		UNL1		0.1387
15		C		-2.6535		-0.3174		0.0759		C.ar		1		UNL1		-0.2563
16		N		0.7140		1.0673		0.2575		N.ar		1		UNL1		-0.5556
17		C		1.2689		-0.2741		-0.0170		C.3		1		UNL1		0.0472
18		O		1.9918		-0.3372		-1.2197		O.3		1		UNL1		-0.4613
19		C		3.3642		0.1033		-1.1370		C.3		1		UNL1		-0.1368
20		C		4.2644		-0.9162		-0.4762		C.ar		1		UNL1		0.1308
21		C		4.5433		-2.1270		-1.1267		C.ar		1		UNL1		-0.1645
22		C		5.3659		-3.0799		-0.5300		C.ar		1		UNL1		-0.1310
23		C		5.9217		-2.8332		0.7291		C.ar		1		UNL1		-0.1267
24		C		5.6456		-1.6345		1.3862		C.ar		1		UNL1		-0.1319
25		C		4.8180		-0.6805		0.7877		C.ar		1		UNL1		-0.1841
26		C		1.3615		1.8221		1.2407		C.ar		1		UNL1		0.7802
27		O		2.3555		1.4402		1.8448		O.2		1		UNL1		-0.5273
28		N		0.7859		3.0503		1.4846		N.ar		1		UNL1		-0.6988
29		C		-0.3196		3.6268		0.8464		C.ar		1		UNL1		0.6036
30		O		-0.6987		4.7450		1.1695		O.2		1		UNL1		-0.5129
31		H		-2.5977		4.7711		-2.5241		H		1		UNL1		0.1474
32		H		-1.1515		3.7924		-2.8372		H		1		UNL1		0.1392
33		H		-1.0799		5.1413		-1.6871		H		1		UNL1		0.1703
34		H		-2.7839		2.6083		-1.2696		H		1		UNL1		0.1450
35		H		-2.6749		3.9730		-0.1694		H		1		UNL1		0.1736
36		H		-0.1047		0.2034		-2.0820		H		1		UNL1		0.2029
37		H		-1.4546		1.2911		-2.2762		H		1		UNL1		0.1871
38		H		-1.4463		-1.6885		-2.7832		H		1		UNL1		0.1319
39		H		-3.0249		-3.4734		-2.1622		H		1		UNL1		0.1345
40		H		-4.7374		-4.3875		-0.5940		H		1		UNL1		0.1320
41		H		-6.0762		-4.1537		1.4729		H		1		UNL1		0.1330
42		H		-5.8285		-2.1307		2.9041		H		1		UNL1		0.1339
43		H		-4.2440		-0.3423		2.2708		H		1		UNL1		0.1345
44		H		-2.5550		0.5607		0.7094		H		1		UNL1		0.1366
45		H		1.8799		-0.5357		0.8472		H		1		UNL1		0.2021
46		H		0.4396		-0.9735		-0.1128		H		1		UNL1		0.1802
47		H		3.4230		1.0663		-0.6180		H		1		UNL1		0.1584
48		H		3.6547		0.2582		-2.1804		H		1		UNL1		0.1544
49		H		4.1097		-2.3190		-2.1056		H		1		UNL1		0.1304
50		H		5.5784		-4.0127		-1.0459		H		1		UNL1		0.1298
51		H		6.5666		-3.5745		1.1939		H		1		UNL1		0.1304
52		H		6.0701		-1.4399		2.3676		H		1		UNL1		0.1334
53		H		4.5857		0.2449		1.3071		H		1		UNL1		0.1674
54		H		1.2411		3.6111		2.1961		H		1		UNL1		0.3532
@<TRIPOS>BOND
1		32		1		1
2		38		7		1
3		31		1		1
4		37		5		1
5		48		19		1
6		39		8		1
7		49		21		1
8		36		5		1
9		1		33		1
10		1		2		1
11		7		8		ar
12		7		6		ar
13		5		6		1
14		5		4		1
15		8		9		ar
16		34		2		1
17		18		19		1
18		18		17		1
19		19		47		1
20		19		20		1
21		21		22		ar
22		21		20		ar
23		6		15		ar
24		50		22		1
25		2		3		1
26		2		35		1
27		40		10		1
28		22		23		ar
29		20		25		ar
30		4		3		ar
31		4		16		ar
32		9		10		ar
33		9		14		ar
34		3		29		ar
35		46		17		1
36		17		16		1
37		17		45		1
38		10		11		ar
39		15		14		ar
40		15		44		1
41		16		26		ar
42		14		13		ar
43		23		51		1
44		23		24		ar
45		25		53		1
46		25		24		ar
47		29		30		2
48		29		28		ar
49		11		41		1
50		11		12		ar
51		26		28		ar
52		26		27		2
53		24		52		1
54		28		54		1
55		13		12		ar
56		13		43		1
57		12		42		1

