@<TRIPOS>MOLECULE
HYP-2004-BMCL-3173-4D
 49 52 0 0 0
SMALL
MULLIKEN_CHARGES
****
Gaussian 16 #p B3LYP/6-31G* opt
@<TRIPOS>ATOM
1		C		-3.5572		2.6683		-0.7950		C.3		1		UNL1		-0.5493
2		C		-2.1116		2.5044		-0.4053		C.ar		1		UNL1		0.0600
3		C		-1.6625		1.6152		0.5408		C.ar		1		UNL1		0.2421
4		C		-2.5949		0.6898		1.2982		C.3		1		UNL1		-0.4091
5		C		-2.8436		-0.6400		0.5824		C.ar		1		UNL1		0.0998
6		C		-1.7511		-1.3952		0.1938		C.ar		1		UNL1		-0.2076
7		C		-1.9026		-2.6363		-0.4629		C.ar		1		UNL1		-0.1357
8		C		-3.1569		-3.1284		-0.7325		C.ar		1		UNL1		-0.1933
9		C		-4.3119		-2.4009		-0.3457		C.ar		1		UNL1		0.1408
10		C		-5.6134		-2.9073		-0.6099		C.ar		1		UNL1		-0.1949
11		C		-6.7396		-2.2165		-0.2295		C.ar		1		UNL1		-0.1333
12		C		-6.6065		-0.9779		0.4396		C.ar		1		UNL1		-0.1367
13		C		-5.3602		-0.4569		0.7086		C.ar		1		UNL1		-0.2006
14		C		-4.1668		-1.1363		0.3269		C.ar		1		UNL1		0.0684
15		N		-0.3291		1.4805		0.8867		N.ar		1		UNL1		-0.5064
16		C		0.5372		2.2060		0.2574		C.ar		1		UNL1		0.3409
17		S		2.2909		2.1286		0.6120		S.3		1		UNL1		0.1564
18		C		2.3698		0.5623		1.5762		C.3		1		UNL1		-0.5497
19		C		2.7331		-0.6284		0.6880		C.2		1		UNL1		0.4250
20		O		1.8502		-1.3859		0.3131		O.2		1		UNL1		-0.4434
21		C		4.1552		-0.8465		0.2908		C.ar		1		UNL1		0.0824
22		C		4.4436		-1.9531		-0.5280		C.ar		1		UNL1		-0.1559
23		C		5.7439		-2.2230		-0.9334		C.ar		1		UNL1		-0.1960
24		C		6.7621		-1.3701		-0.5125		C.ar		1		UNL1		0.3950
25		F		8.0239		-1.6236		-0.9001		F		1		UNL1		-0.2848
26		C		6.5172		-0.2649		0.2957		C.ar		1		UNL1		-0.2022
27		C		5.2080		-0.0093		0.6955		C.ar		1		UNL1		-0.1777
28		N		0.1931		3.1100		-0.6967		N.ar		1		UNL1		-0.6518
29		C		-1.1463		3.3518		-1.0936		C.ar		1		UNL1		0.5728
30		O		-1.3722		4.1982		-1.9487		O.2		1		UNL1		-0.5217
31		H		-4.0407		1.7044		-0.9817		H		1		UNL1		0.1768
32		H		-3.6207		3.2765		-1.6997		H		1		UNL1		0.1935
33		H		-4.1311		3.1809		-0.0109		H		1		UNL1		0.1598
34		H		-2.1350		0.4921		2.2731		H		1		UNL1		0.1748
35		H		-3.5320		1.2132		1.4900		H		1		UNL1		0.1595
36		H		-0.7465		-1.0356		0.3956		H		1		UNL1		0.1771
37		H		-1.0148		-3.1928		-0.7502		H		1		UNL1		0.1363
38		H		-3.2850		-4.0821		-1.2394		H		1		UNL1		0.1263
39		H		-5.7001		-3.8630		-1.1219		H		1		UNL1		0.1288
40		H		-7.7277		-2.6175		-0.4381		H		1		UNL1		0.1287
41		H		-7.4953		-0.4326		0.7458		H		1		UNL1		0.1280
42		H		-5.2990		0.4919		1.2302		H		1		UNL1		0.1301
43		H		3.0848		0.7282		2.3849		H		1		UNL1		0.1980
44		H		1.3701		0.4057		1.9861		H		1		UNL1		0.2527
45		H		3.6227		-2.5919		-0.8355		H		1		UNL1		0.1766
46		H		5.9833		-3.0726		-1.5643		H		1		UNL1		0.1604
47		H		7.3414		0.3724		0.5975		H		1		UNL1		0.1588
48		H		5.0204		0.8551		1.3241		H		1		UNL1		0.1461
49		H		0.8935		3.6509		-1.1941		H		1		UNL1		0.3546
@<TRIPOS>BOND
1		30		29		2
2		32		1		1
3		46		23		1
4		38		8		1
5		49		28		1
6		39		10		1
7		29		28		ar
8		29		2		ar
9		31		1		1
10		23		22		ar
11		23		24		ar
12		25		24		1
13		45		22		1
14		1		2		1
15		1		33		1
16		37		7		1
17		8		7		ar
18		8		9		ar
19		28		16		ar
20		10		9		ar
21		10		11		ar
22		22		21		ar
23		24		26		ar
24		7		6		ar
25		40		11		1
26		2		3		ar
27		9		14		ar
28		11		12		ar
29		6		36		1
30		6		5		ar
31		16		17		1
32		16		15		ar
33		21		19		1
34		21		27		ar
35		26		47		1
36		26		27		ar
37		20		19		2
38		14		5		ar
39		14		13		ar
40		12		13		ar
41		12		41		1
42		3		15		ar
43		3		4		1
44		5		4		1
45		17		18		1
46		19		18		1
47		27		48		1
48		13		42		1
49		4		35		1
50		4		34		1
51		18		44		1
52		18		43		1

