@<TRIPOS>MOLECULE
HYP-2004-BMCL-3173-4N
 58 61 0 0 0
SMALL
MULLIKEN_CHARGES
****
Gaussian 16 #p B3LYP/6-31G* opt
@<TRIPOS>ATOM
1		C		9.3500		-1.6347		-1.0423		C.3		1		UNL1		-0.5337
2		C		7.9905		-1.1620		-0.5906		C.ar		1		UNL1		0.1872
3		C		7.6063		0.1796		-0.7592		C.ar		1		UNL1		-0.1770
4		C		6.3653		0.6273		-0.3316		C.ar		1		UNL1		-0.1502
5		C		5.4607		-0.2540		0.2898		C.ar		1		UNL1		0.0816
6		C		4.1484		0.2878		0.7200		C.2		1		UNL1		0.4287
7		O		3.8295		1.4494		0.4716		O.2		1		UNL1		-0.4697
8		C		3.1495		-0.5879		1.4706		C.3		1		UNL1		-0.5662
9		S		1.9083		-1.3716		0.3508		S.3		1		UNL1		0.2033
10		C		0.6727		-0.0975		0.1196		C.ar		1		UNL1		0.3178
11		N		-0.4904		-0.5347		-0.2537		N.ar		1		UNL1		-0.4955
12		C		-1.4821		0.3986		-0.4889		C.ar		1		UNL1		0.1828
13		C		-2.7639		-0.2273		-1.0003		C.3		1		UNL1		-0.4215
14		C		-3.8199		-0.5559		0.0503		C.ar		1		UNL1		0.1283
15		C		-3.5981		-0.3550		1.3973		C.ar		1		UNL1		-0.1929
16		C		-4.5805		-0.6684		2.3678		C.ar		1		UNL1		-0.1355
17		C		-5.7929		-1.1867		1.9859		C.ar		1		UNL1		-0.1902
18		C		-6.0723		-1.4198		0.6124		C.ar		1		UNL1		0.1380
19		C		-7.3177		-1.9598		0.1948		C.ar		1		UNL1		-0.1943
20		C		-7.5833		-2.1907		-1.1358		C.ar		1		UNL1		-0.1329
21		C		-6.6046		-1.8892		-2.1103		C.ar		1		UNL1		-0.1336
22		C		-5.3866		-1.3623		-1.7380		C.ar		1		UNL1		-0.1963
23		C		-5.0770		-1.1066		-0.3733		C.ar		1		UNL1		0.0715
24		C		-1.3219		1.7511		-0.2775		C.ar		1		UNL1		0.0614
25		C		-2.4289		2.7764		-0.4754		C.3		1		UNL1		-0.1444
26		C		-2.1212		3.7287		-1.6495		C.3		1		UNL1		-0.4527
27		C		-2.7254		3.5635		0.8180		C.3		1		UNL1		-0.4566
28		C		-0.0055		2.2370		0.1277		C.ar		1		UNL1		0.5703
29		O		0.3348		3.4018		0.3095		O.2		1		UNL1		-0.5237
30		N		0.9613		1.2140		0.2991		N.ar		1		UNL1		-0.6627
31		C		5.8386		-1.5953		0.4582		C.ar		1		UNL1		-0.1733
32		C		7.0838		-2.0385		0.0186		C.ar		1		UNL1		-0.1857
33		H		9.5930		-1.2531		-2.0403		H		1		UNL1		0.1712
34		H		10.1347		-1.2785		-0.3620		H		1		UNL1		0.1764
35		H		9.4078		-2.7269		-1.0711		H		1		UNL1		0.1642
36		H		8.2926		0.8753		-1.2361		H		1		UNL1		0.1395
37		H		6.0672		1.6613		-0.4684		H		1		UNL1		0.1738
38		H		2.6280		0.0283		2.2072		H		1		UNL1		0.2191
39		H		3.6161		-1.4215		1.9976		H		1		UNL1		0.2035
40		H		-3.2069		0.4197		-1.7659		H		1		UNL1		0.1666
41		H		-2.4718		-1.1543		-1.5081		H		1		UNL1		0.1819
42		H		-2.6484		0.0523		1.7283		H		1		UNL1		0.1327
43		H		-4.3642		-0.4929		3.4182		H		1		UNL1		0.1287
44		H		-6.5536		-1.4277		2.7247		H		1		UNL1		0.1268
45		H		-8.0627		-2.1903		0.9531		H		1		UNL1		0.1285
46		H		-8.5409		-2.6049		-1.4398		H		1		UNL1		0.1286
47		H		-6.8146		-2.0753		-3.1602		H		1		UNL1		0.1283
48		H		-4.6502		-1.1438		-2.5042		H		1		UNL1		0.1324
49		H		-3.3438		2.2294		-0.7240		H		1		UNL1		0.1347
50		H		-2.9557		4.4242		-1.7995		H		1		UNL1		0.1368
51		H		-1.2180		4.3102		-1.4479		H		1		UNL1		0.1817
52		H		-1.9735		3.1725		-2.5829		H		1		UNL1		0.1333
53		H		-3.0042		2.8866		1.6336		H		1		UNL1		0.1387
54		H		-3.5641		4.2500		0.6515		H		1		UNL1		0.1360
55		H		-1.8551		4.1465		1.1284		H		1		UNL1		0.1813
56		H		1.9205		1.5365		0.4733		H		1		UNL1		0.3945
57		H		5.1639		-2.3119		0.9152		H		1		UNL1		0.1409
58		H		7.3555		-3.0827		0.1497		H		1		UNL1		0.1374
@<TRIPOS>BOND
1		47		21		1
2		52		26		1
3		48		22		1
4		21		22		ar
5		21		20		ar
6		33		1		1
7		50		26		1
8		40		13		1
9		22		23		ar
10		26		51		1
11		26		25		1
12		41		13		1
13		46		20		1
14		36		3		1
15		20		19		ar
16		35		1		1
17		1		2		1
18		1		34		1
19		13		12		1
20		13		14		1
21		3		2		ar
22		3		4		ar
23		49		25		1
24		2		32		ar
25		12		24		ar
26		12		11		ar
27		25		24		1
28		25		27		1
29		37		4		1
30		23		14		ar
31		23		18		ar
32		4		5		ar
33		24		28		ar
34		11		10		ar
35		32		58		1
36		32		31		ar
37		14		15		ar
38		10		30		ar
39		10		9		1
40		28		30		ar
41		28		29		2
42		19		18		ar
43		19		45		1
44		5		31		ar
45		5		6		1
46		30		56		1
47		9		8		1
48		31		57		1
49		7		6		2
50		18		17		ar
51		54		27		1
52		6		8		1
53		27		55		1
54		27		53		1
55		15		42		1
56		15		16		ar
57		8		39		1
58		8		38		1
59		17		16		ar
60		17		44		1
61		16		43		1

