@<TRIPOS>MOLECULE
HYP-2004-BMCL-3173-4U
 61 64 0 0 0
SMALL
MULLIKEN_CHARGES
****
Gaussian 16 #p B3LYP/6-31G* opt
@<TRIPOS>ATOM
1		C		-9.0770		2.1060		0.8907		C.3		1		UNL1		-0.5346
2		C		-7.7452		1.5126		0.5033		C.ar		1		UNL1		0.2015
3		C		-6.6848		2.3280		0.0896		C.ar		1		UNL1		-0.1867
4		C		-5.4806		1.7613		-0.3022		C.ar		1		UNL1		-0.1794
5		C		-5.2734		0.3680		-0.2771		C.ar		1		UNL1		0.0513
6		C		-3.9596		-0.1880		-0.6767		C.2		1		UNL1		0.4171
7		O		-3.6339		-1.3509		-0.4366		O.2		1		UNL1		-0.4769
8		C		-2.9416		0.6820		-1.4188		C.3		1		UNL1		-0.5652
9		S		-1.6816		1.4436		-0.3048		S.3		1		UNL1		0.2015
10		C		-0.4586		0.1550		-0.0905		C.ar		1		UNL1		0.3165
11		N		0.7134		0.5752		0.2752		N.ar		1		UNL1		-0.4955
12		C		1.6942		-0.3724		0.4975		C.ar		1		UNL1		0.1827
13		C		2.9888		0.2337		1.0005		C.3		1		UNL1		-0.4215
14		C		4.0399		0.5527		-0.0578		C.ar		1		UNL1		0.1283
15		C		3.8027		0.3634		-1.4039		C.ar		1		UNL1		-0.1929
16		C		4.7806		0.6679		-2.3816		C.ar		1		UNL1		-0.1355
17		C		6.0042		1.1656		-2.0081		C.ar		1		UNL1		-0.1902
18		C		6.2998		1.3862		-0.6360		C.ar		1		UNL1		0.1380
19		C		7.5570		1.9050		-0.2268		C.ar		1		UNL1		-0.1943
20		C		7.8383		2.1241		1.1025		C.ar		1		UNL1		-0.1329
21		C		6.8642		1.8315		2.0843		C.ar		1		UNL1		-0.1336
22		C		5.6350		1.3251		1.7204		C.ar		1		UNL1		-0.1963
23		C		5.3090		1.0821		0.3571		C.ar		1		UNL1		0.0714
24		C		1.5143		-1.7219		0.2815		C.ar		1		UNL1		0.0611
25		C		2.6093		-2.7626		0.4653		C.3		1		UNL1		-0.1442
26		C		2.2993		-3.7158		1.6380		C.3		1		UNL1		-0.4526
27		C		2.8840		-3.5478		-0.8340		C.3		1		UNL1		-0.4565
28		C		0.1881		-2.1882		-0.1145		C.ar		1		UNL1		0.5701
29		O		-0.1696		-3.3478		-0.2979		O.2		1		UNL1		-0.5249
30		N		-0.7657		-1.1517		-0.2734		N.ar		1		UNL1		-0.6629
31		C		-6.3333		-0.4750		0.1595		C.ar		1		UNL1		0.1472
32		C		-6.2322		-1.9792		0.2421		C.3		1		UNL1		-0.5042
33		C		-7.5405		0.1285		0.5263		C.ar		1		UNL1		-0.2458
34		H		-9.6287		1.4471		1.5685		H		1		UNL1		0.1665
35		H		-9.7060		2.2656		0.0047		H		1		UNL1		0.1762
36		H		-8.9547		3.0779		1.3801		H		1		UNL1		0.1670
37		H		-6.8035		3.4083		0.0735		H		1		UNL1		0.1355
38		H		-4.6768		2.4243		-0.6034		H		1		UNL1		0.1425
39		H		-3.3907		1.5196		-1.9539		H		1		UNL1		0.2044
40		H		-2.4302		0.0525		-2.1513		H		1		UNL1		0.2180
41		H		2.7137		1.1622		1.5150		H		1		UNL1		0.1819
42		H		3.4295		-0.4228		1.7593		H		1		UNL1		0.1664
43		H		2.8439		-0.0275		-1.7284		H		1		UNL1		0.1328
44		H		4.5519		0.5021		-3.4310		H		1		UNL1		0.1286
45		H		6.7615		1.3996		-2.7526		H		1		UNL1		0.1267
46		H		8.2983		2.1288		-0.9907		H		1		UNL1		0.1285
47		H		8.8047		2.5221		1.4000		H		1		UNL1		0.1285
48		H		7.0866		2.0084		3.1333		H		1		UNL1		0.1282
49		H		4.9025		1.1133		2.4921		H		1		UNL1		0.1324
50		H		3.5335		-2.2288		0.7082		H		1		UNL1		0.1346
51		H		1.3866		-4.2842		1.4418		H		1		UNL1		0.1814
52		H		3.1256		-4.4231		1.7777		H		1		UNL1		0.1367
53		H		2.1672		-3.1618		2.5750		H		1		UNL1		0.1332
54		H		2.0034		-4.1176		-1.1394		H		1		UNL1		0.1810
55		H		3.7148		-4.2463		-0.6777		H		1		UNL1		0.1358
56		H		3.1649		-2.8710		-1.6489		H		1		UNL1		0.1387
57		H		-1.7311		-1.4588		-0.4423		H		1		UNL1		0.3946
58		H		-5.5081		-2.2901		1.0012		H		1		UNL1		0.1882
59		H		-7.2083		-2.4063		0.4923		H		1		UNL1		0.1455
60		H		-5.8868		-2.4199		-0.6978		H		1		UNL1		0.1757
61		H		-8.3566		-0.5133		0.8511		H		1		UNL1		0.1300
@<TRIPOS>BOND
1		44		16		1
2		45		17		1
3		16		17		ar
4		16		15		ar
5		40		8		1
6		17		18		ar
7		39		8		1
8		43		15		1
9		56		27		1
10		8		6		1
11		8		9		1
12		15		14		ar
13		54		27		1
14		46		19		1
15		27		55		1
16		27		25		1
17		60		32		1
18		6		7		2
19		6		5		1
20		18		19		ar
21		18		23		ar
22		38		4		1
23		57		30		1
24		9		10		1
25		4		5		ar
26		4		3		ar
27		29		28		2
28		5		31		ar
29		30		28		ar
30		30		10		ar
31		19		20		ar
32		28		24		ar
33		10		11		ar
34		14		23		ar
35		14		13		1
36		35		1		1
37		37		3		1
38		3		2		ar
39		31		32		1
40		31		33		ar
41		32		59		1
42		32		58		1
43		11		12		ar
44		24		25		1
45		24		12		ar
46		23		22		ar
47		25		50		1
48		25		26		1
49		12		13		1
50		2		33		ar
51		2		1		1
52		33		61		1
53		1		36		1
54		1		34		1
55		13		41		1
56		13		42		1
57		20		47		1
58		20		21		ar
59		51		26		1
60		26		52		1
61		26		53		1
62		22		21		ar
63		22		49		1
64		21		48		1

