@<TRIPOS>MOLECULE
HYP-2004-BMCL-3173-4P
 48 50 0 0 0
SMALL
MULLIKEN_CHARGES
****
Gaussian 16 #p B3LYP/6-31G* opt
@<TRIPOS>ATOM
1		C		-3.0915		-2.1563		-1.6937		C.3		1		UNL1		-0.5461
2		C		-3.6357		-2.8965		-0.4891		C.2		1		UNL1		0.4778
3		O		-4.0637		-4.0309		-0.5521		O.2		1		UNL1		-0.4150
4		C		-3.6479		-2.1563		0.8541		C.3		1		UNL1		-0.5332
5		S		-1.9423		-1.8352		1.5035		S.3		1		UNL1		0.1901
6		C		-1.5831		-0.2113		0.8369		C.ar		1		UNL1		0.2770
7		N		-0.5054		-0.0368		0.1442		N.ar		1		UNL1		-0.4686
8		C		-0.2029		1.2413		-0.3035		C.ar		1		UNL1		0.2374
9		C		1.1365		1.2907		-1.0202		C.3		1		UNL1		-0.4270
10		C		2.2829		0.7005		-0.2062		C.ar		1		UNL1		0.1235
11		C		2.9194		1.5134		0.7130		C.ar		1		UNL1		-0.2035
12		C		4.0102		1.0563		1.4859		C.ar		1		UNL1		-0.1298
13		C		4.4753		-0.2266		1.3249		C.ar		1		UNL1		-0.1913
14		C		3.8597		-1.1046		0.3948		C.ar		1		UNL1		0.1369
15		C		4.3364		-2.4318		0.2168		C.ar		1		UNL1		-0.1950
16		C		3.7388		-3.2875		-0.6782		C.ar		1		UNL1		-0.1315
17		C		2.6252		-2.8488		-1.4323		C.ar		1		UNL1		-0.1387
18		C		2.1383		-1.5697		-1.2833		C.ar		1		UNL1		-0.1767
19		C		2.7367		-0.6488		-0.3783		C.ar		1		UNL1		0.0862
20		C		-1.0426		2.3206		-0.1372		C.ar		1		UNL1		0.0325
21		C		-0.8684		3.7381		-0.6769		C.3		1		UNL1		-0.1601
22		C		0.2691		4.5315		-0.0027		C.3		1		UNL1		-0.4517
23		C		-0.7935		3.8069		-2.2149		C.3		1		UNL1		-0.4483
24		C		-2.2649		2.1268		0.6510		C.ar		1		UNL1		0.5668
25		O		-3.1015		2.9750		0.9394		O.2		1		UNL1		-0.5204
26		N		-2.4362		0.8103		1.1289		N.ar		1		UNL1		-0.6235
27		H		-3.1794		-2.7903		-2.5778		H		1		UNL1		0.1858
28		H		-2.0416		-1.8820		-1.5382		H		1		UNL1		0.2038
29		H		-3.6479		-1.2236		-1.8533		H		1		UNL1		0.1679
30		H		-4.1964		-1.2118		0.7764		H		1		UNL1		0.1884
31		H		-4.1401		-2.7934		1.5917		H		1		UNL1		0.2147
32		H		1.3846		2.3206		-1.2726		H		1		UNL1		0.1657
33		H		1.0320		0.7598		-1.9732		H		1		UNL1		0.1705
34		H		2.5759		2.5365		0.8447		H		1		UNL1		0.1305
35		H		4.4817		1.7286		2.1976		H		1		UNL1		0.1298
36		H		5.3209		-0.5880		1.9053		H		1		UNL1		0.1291
37		H		5.1884		-2.7591		0.8084		H		1		UNL1		0.1288
38		H		4.1137		-4.2996		-0.8043		H		1		UNL1		0.1297
39		H		2.1454		-3.5309		-2.1290		H		1		UNL1		0.1283
40		H		1.2639		-1.2695		-1.8487		H		1		UNL1		0.1302
41		H		-1.7957		4.2431		-0.3897		H		1		UNL1		0.1810
42		H		0.2156		5.5840		-0.3051		H		1		UNL1		0.1494
43		H		1.2644		4.1653		-0.2765		H		1		UNL1		0.1485
44		H		0.1818		4.4919		1.0884		H		1		UNL1		0.1556
45		H		-0.8301		4.8532		-2.5407		H		1		UNL1		0.1487
46		H		0.1265		3.3708		-2.6179		H		1		UNL1		0.1456
47		H		-1.6407		3.2848		-2.6733		H		1		UNL1		0.1485
48		H		-3.2218		0.6787		1.7567		H		1		UNL1		0.3518
@<TRIPOS>BOND
1		47		23		1
2		46		23		1
3		27		1		1
4		45		23		1
5		23		21		1
6		39		17		1
7		33		9		1
8		29		1		1
9		40		18		1
10		1		28		1
11		1		2		1
12		17		18		ar
13		17		16		ar
14		18		19		ar
15		32		9		1
16		9		8		1
17		9		10		1
18		38		16		1
19		16		15		ar
20		21		41		1
21		21		20		1
22		21		22		1
23		3		2		2
24		2		4		1
25		19		10		ar
26		19		14		ar
27		42		22		1
28		8		20		ar
29		8		7		ar
30		43		22		1
31		10		11		ar
32		20		24		ar
33		22		44		1
34		7		6		ar
35		15		14		ar
36		15		37		1
37		14		13		ar
38		24		25		2
39		24		26		ar
40		11		34		1
41		11		12		ar
42		30		4		1
43		6		26		ar
44		6		5		1
45		4		5		1
46		4		31		1
47		26		48		1
48		13		12		ar
49		13		36		1
50		12		35		1

