@<TRIPOS>MOLECULE
HYP-2005-CJCU-254-8
 44 46 0 0 0
SMALL
MULLIKEN_CHARGES
****
Gaussian 16 #p B3LYP/6-31G* opt
@<TRIPOS>ATOM
1		C		-4.5676		-3.0933		-0.3826		C.3		1		UNL1		-0.4606
2		C		-3.2059		-2.9111		-1.0483		C.3		1		UNL1		-0.0294
3		O		-2.7059		-1.5751		-0.9545		O.3		1		UNL1		-0.4696
4		C		-2.1482		-1.2639		0.3067		C.3		1		UNL1		0.0680
5		N		-1.7591		0.1365		0.3049		N.ar		1		UNL1		-0.5754
6		C		-0.7354		0.6354		-0.5265		C.ar		1		UNL1		0.3473
7		C		0.0947		-0.3751		-1.3092		C.3		1		UNL1		-0.4574
8		C		1.6072		-0.3764		-1.0958		C.ar		1		UNL1		0.1342
9		C		2.4188		-0.2700		-2.2095		C.ar		1		UNL1		-0.2101
10		C		3.8280		-0.3384		-2.1241		C.ar		1		UNL1		-0.1282
11		C		4.4330		-0.5170		-0.9045		C.ar		1		UNL1		-0.1914
12		C		3.6509		-0.6389		0.2743		C.ar		1		UNL1		0.1427
13		C		4.2660		-0.8359		1.5397		C.ar		1		UNL1		-0.1946
14		C		3.5150		-0.9666		2.6846		C.ar		1		UNL1		-0.1311
15		C		2.1050		-0.9023		2.6081		C.ar		1		UNL1		-0.1415
16		C		1.4776		-0.7091		1.3968		C.ar		1		UNL1		-0.1937
17		C		2.2171		-0.5709		0.1891		C.ar		1		UNL1		0.0787
18		C		-0.5136		1.9749		-0.6465		C.ar		1		UNL1		0.0066
19		C		0.5291		2.5863		-1.5461		C.3		1		UNL1		-0.5310
20		C		-1.3272		2.9207		0.1197		C.ar		1		UNL1		0.5978
21		O		-1.2207		4.1393		0.0985		O.2		1		UNL1		-0.5100
22		N		-2.2980		2.3218		0.9317		N.ar		1		UNL1		-0.6976
23		C		-2.6004		0.9852		1.0489		C.ar		1		UNL1		0.7879
24		O		-3.5115		0.5811		1.7546		O.2		1		UNL1		-0.5179
25		H		-4.9346		-4.1117		-0.5553		H		1		UNL1		0.1483
26		H		-5.2921		-2.3878		-0.8014		H		1		UNL1		0.1689
27		H		-4.5244		-2.9340		0.6998		H		1		UNL1		0.1615
28		H		-2.4697		-3.6187		-0.6330		H		1		UNL1		0.1265
29		H		-3.2803		-3.1082		-2.1222		H		1		UNL1		0.1548
30		H		-2.8688		-1.3755		1.1173		H		1		UNL1		0.2014
31		H		-1.2761		-1.9010		0.5101		H		1		UNL1		0.1382
32		H		-0.2894		-1.3834		-1.1542		H		1		UNL1		0.1903
33		H		-0.0866		-0.1718		-2.3713		H		1		UNL1		0.1829
34		H		1.9615		-0.1276		-3.1858		H		1		UNL1		0.1265
35		H		4.4236		-0.2465		-3.0281		H		1		UNL1		0.1341
36		H		5.5159		-0.5703		-0.8227		H		1		UNL1		0.1333
37		H		5.3516		-0.8831		1.5846		H		1		UNL1		0.1330
38		H		3.9997		-1.1171		3.6452		H		1		UNL1		0.1341
39		H		1.5110		-1.0019		3.5125		H		1		UNL1		0.1344
40		H		0.3967		-0.6487		1.3735		H		1		UNL1		0.1377
41		H		0.5516		2.1108		-2.5323		H		1		UNL1		0.1472
42		H		1.5374		2.5091		-1.1240		H		1		UNL1		0.1780
43		H		0.2999		3.6465		-1.6721		H		1		UNL1		0.1915
44		H		-2.8877		2.9489		1.4668		H		1		UNL1		0.3539
@<TRIPOS>BOND
1		34		9		1
2		35		10		1
3		41		19		1
4		33		7		1
5		9		10		ar
6		9		8		ar
7		10		11		ar
8		29		2		1
9		43		19		1
10		19		42		1
11		19		18		1
12		7		32		1
13		7		8		1
14		7		6		1
15		8		17		ar
16		2		3		1
17		2		28		1
18		2		1		1
19		3		4		1
20		11		36		1
21		11		12		ar
22		26		1		1
23		18		6		ar
24		18		20		ar
25		25		1		1
26		6		5		ar
27		1		27		1
28		21		20		2
29		20		22		ar
30		17		12		ar
31		17		16		ar
32		12		13		ar
33		5		4		1
34		5		23		ar
35		4		31		1
36		4		30		1
37		22		23		ar
38		22		44		1
39		23		24		2
40		40		16		1
41		16		15		ar
42		13		37		1
43		13		14		ar
44		15		14		ar
45		15		39		1
46		14		38		1

