@<TRIPOS>MOLECULE
HYP-2005-CJCU-254-22
 47 49 0 0 0
SMALL
MULLIKEN_CHARGES
****
Gaussian 16 #p B3LYP/6-31G* opt
@<TRIPOS>ATOM
1		C		-0.1159		4.2805		-0.4816		C.3		1		UNL1		-0.4770
2		C		0.2988		2.8181		-0.3610		C.3		1		UNL1		-0.0349
3		O		0.0308		2.2489		0.9307		O.3		1		UNL1		-0.4582
4		C		-1.3134		2.0362		1.2415		C.3		1		UNL1		0.0519
5		N		-1.9677		0.9752		0.4436		N.ar		1		UNL1		-0.5596
6		C		-1.6533		-0.3856		0.6022		C.ar		1		UNL1		0.3253
7		C		-0.4037		-0.7224		1.3950		C.3		1		UNL1		-0.4353
8		C		0.8961		-0.7477		0.5897		C.ar		1		UNL1		0.1950
9		C		0.9417		-1.2444		-0.7407		C.ar		1		UNL1		-0.1875
10		C		2.1321		-1.3213		-1.4281		C.ar		1		UNL1		-0.1987
11		C		3.3521		-0.9091		-0.8322		C.ar		1		UNL1		0.1376
12		C		4.5986		-0.9759		-1.5112		C.ar		1		UNL1		-0.1915
13		C		5.7579		-0.5599		-0.8970		C.ar		1		UNL1		-0.1352
14		C		5.7235		-0.0553		0.4272		C.ar		1		UNL1		-0.1370
15		C		4.5317		0.0231		1.1111		C.ar		1		UNL1		-0.1897
16		C		3.3164		-0.4005		0.5065		C.ar		1		UNL1		0.1372
17		C		2.0712		-0.3324		1.1832		C.ar		1		UNL1		-0.2529
18		C		-2.4158		-1.3626		0.0287		C.ar		1		UNL1		-0.0188
19		C		-2.1849		-2.8518		0.1747		C.3		1		UNL1		-0.3314
20		C		-3.0339		-3.4809		1.2942		C.3		1		UNL1		-0.4455
21		C		-3.5733		-0.9922		-0.7882		C.ar		1		UNL1		0.6041
22		O		-4.3429		-1.7753		-1.3295		O.2		1		UNL1		-0.5123
23		N		-3.7460		0.3866		-0.9534		N.ar		1		UNL1		-0.6954
24		C		-3.0163		1.4062		-0.3827		C.ar		1		UNL1		0.7756
25		O		-3.2830		2.5835		-0.5811		O.2		1		UNL1		-0.5207
26		H		0.2425		4.6841		-1.4359		H		1		UNL1		0.1489
27		H		0.3224		4.8743		0.3278		H		1		UNL1		0.1530
28		H		-1.2038		4.3955		-0.4640		H		1		UNL1		0.1813
29		H		1.3803		2.7082		-0.4764		H		1		UNL1		0.1586
30		H		-0.1809		2.2115		-1.1408		H		1		UNL1		0.1415
31		H		-1.9302		2.9228		1.0954		H		1		UNL1		0.1973
32		H		-1.3361		1.7469		2.2941		H		1		UNL1		0.1647
33		H		-0.5598		-1.7068		1.8473		H		1		UNL1		0.1846
34		H		-0.2740		-0.0309		2.2296		H		1		UNL1		0.1709
35		H		0.0228		-1.5565		-1.2270		H		1		UNL1		0.1392
36		H		2.1477		-1.7016		-2.4469		H		1		UNL1		0.1333
37		H		4.6208		-1.3629		-2.5274		H		1		UNL1		0.1313
38		H		6.7057		-0.6165		-1.4255		H		1		UNL1		0.1315
39		H		6.6454		0.2708		0.9012		H		1		UNL1		0.1315
40		H		4.5033		0.4109		2.1268		H		1		UNL1		0.1309
41		H		2.0541		0.0700		2.1937		H		1		UNL1		0.1269
42		H		-2.4618		-3.3222		-0.7743		H		1		UNL1		0.1733
43		H		-1.1261		-3.0720		0.3384		H		1		UNL1		0.1451
44		H		-4.0982		-3.3090		1.1068		H		1		UNL1		0.1714
45		H		-2.8679		-4.5631		1.3421		H		1		UNL1		0.1481
46		H		-2.7858		-3.0556		2.2740		H		1		UNL1		0.1376
47		H		-4.5200		0.6800		-1.5389		H		1		UNL1		0.3539
@<TRIPOS>BOND
1		37		12		1
2		36		10		1
3		47		23		1
4		12		13		ar
5		12		11		ar
6		26		1		1
7		10		11		ar
8		10		9		ar
9		38		13		1
10		22		21		2
11		35		9		1
12		30		2		1
13		23		21		ar
14		23		24		ar
15		13		14		ar
16		11		16		ar
17		21		18		ar
18		42		19		1
19		9		8		ar
20		25		24		2
21		1		28		1
22		1		2		1
23		1		27		1
24		29		2		1
25		24		5		ar
26		2		3		1
27		18		19		1
28		18		6		ar
29		19		43		1
30		19		20		1
31		14		39		1
32		14		15		ar
33		5		6		ar
34		5		4		1
35		16		15		ar
36		16		17		ar
37		8		17		ar
38		8		7		1
39		6		7		1
40		3		4		1
41		31		4		1
42		44		20		1
43		15		40		1
44		17		41		1
45		4		32		1
46		20		45		1
47		20		46		1
48		7		33		1
49		7		34		1

