@<TRIPOS>MOLECULE
HYP-2004-BMCL-3173-4K
 52 55 0 0 0
SMALL
MULLIKEN_CHARGES
****
Gaussian 16 #p B3LYP/6-31G* opt
@<TRIPOS>ATOM
1		C		-4.4737		3.5631		0.0572		C.3		1		UNL1		-0.4509
2		C		-3.5817		3.1346		-1.1237		C.3		1		UNL1		-0.3287
3		C		-2.2402		2.5962		-0.6871		C.ar		1		UNL1		0.0466
4		C		-1.8847		1.2702		-0.6130		C.ar		1		UNL1		0.2049
5		C		-2.7916		0.1262		-1.0043		C.3		1		UNL1		-0.4142
6		C		-3.5661		-0.5277		0.1366		C.ar		1		UNL1		0.1260
7		C		-3.4818		-0.0714		1.4361		C.ar		1		UNL1		-0.1944
8		C		-4.2078		-0.6827		2.4873		C.ar		1		UNL1		-0.1375
9		C		-5.0225		-1.7580		2.2338		C.ar		1		UNL1		-0.1897
10		C		-5.1443		-2.2704		0.9141		C.ar		1		UNL1		0.1372
11		C		-5.9805		-3.3825		0.6294		C.ar		1		UNL1		-0.1940
12		C		-6.0952		-3.8776		-0.6496		C.ar		1		UNL1		-0.1325
13		C		-5.3714		-3.2754		-1.7040		C.ar		1		UNL1		-0.1332
14		C		-4.5517		-2.1943		-1.4612		C.ar		1		UNL1		-0.1973
15		C		-4.4085		-1.6540		-0.1531		C.ar		1		UNL1		0.0727
16		N		-0.6428		0.8429		-0.1682		N.ar		1		UNL1		-0.4953
17		C		0.2314		1.7345		0.1627		C.ar		1		UNL1		0.3426
18		S		1.8624		1.3143		0.7681		S.3		1		UNL1		0.1576
19		C		1.8846		-0.5042		0.4724		C.3		1		UNL1		-0.5541
20		C		2.8843		-0.8756		-0.6238		C.2		1		UNL1		0.4246
21		O		2.4737		-1.1757		-1.7326		O.2		1		UNL1		-0.4404
22		C		4.3478		-0.8678		-0.3164		C.ar		1		UNL1		0.0827
23		C		5.2372		-1.1982		-1.3522		C.ar		1		UNL1		-0.1521
24		C		6.6095		-1.2155		-1.1380		C.ar		1		UNL1		-0.1293
25		C		7.1017		-0.8972		0.1307		C.ar		1		UNL1		-0.0595
26		CL		8.8320		-0.9166		0.4119		Cl		1		UNL1		-0.0019
27		C		6.2426		-0.5647		1.1778		C.ar		1		UNL1		-0.1339
28		C		4.8682		-0.5532		0.9480		C.ar		1		UNL1		-0.1776
29		N		-0.0166		3.0712		0.1037		N.ar		1		UNL1		-0.6552
30		C		-1.2590		3.6085		-0.3059		C.ar		1		UNL1		0.5816
31		O		-1.4123		4.8234		-0.3217		O.2		1		UNL1		-0.5209
32		H		-5.4196		3.9765		-0.3107		H		1		UNL1		0.1457
33		H		-4.7039		2.7126		0.7077		H		1		UNL1		0.1510
34		H		-3.9754		4.3347		0.6517		H		1		UNL1		0.1695
35		H		-3.4013		4.0094		-1.7586		H		1		UNL1		0.1685
36		H		-4.1126		2.3969		-1.7326		H		1		UNL1		0.1421
37		H		-2.1521		-0.6309		-1.4751		H		1		UNL1		0.1830
38		H		-3.4982		0.4564		-1.7731		H		1		UNL1		0.1689
39		H		-2.8445		0.7757		1.6678		H		1		UNL1		0.1314
40		H		-4.1131		-0.2905		3.4962		H		1		UNL1		0.1303
41		H		-5.5843		-2.2322		3.0350		H		1		UNL1		0.1288
42		H		-6.5323		-3.8388		1.4481		H		1		UNL1		0.1302
43		H		-6.7389		-4.7293		-0.8520		H		1		UNL1		0.1308
44		H		-5.4618		-3.6689		-2.7130		H		1		UNL1		0.1308
45		H		-4.0049		-1.7517		-2.2872		H		1		UNL1		0.1335
46		H		0.8775		-0.7631		0.1369		H		1		UNL1		0.2589
47		H		2.0987		-0.9942		1.4252		H		1		UNL1		0.1994
48		H		4.8256		-1.4398		-2.3265		H		1		UNL1		0.1776
49		H		7.2959		-1.4705		-1.9383		H		1		UNL1		0.1664
50		H		6.6442		-0.3204		2.1551		H		1		UNL1		0.1648
51		H		4.2106		-0.2936		1.7718		H		1		UNL1		0.1495
52		H		0.6932		3.7567		0.3427		H		1		UNL1		0.3548
@<TRIPOS>BOND
1		44		13		1
2		48		23		1
3		45		14		1
4		49		24		1
5		38		5		1
6		35		2		1
7		21		20		2
8		36		2		1
9		13		14		ar
10		13		12		ar
11		37		5		1
12		14		15		ar
13		23		24		ar
14		23		22		ar
15		24		25		ar
16		2		3		1
17		2		1		1
18		5		4		1
19		5		6		1
20		43		12		1
21		3		4		ar
22		3		30		ar
23		12		11		ar
24		20		22		1
25		20		19		1
26		4		16		ar
27		31		30		2
28		22		28		ar
29		32		1		1
30		30		29		ar
31		16		17		ar
32		15		6		ar
33		15		10		ar
34		1		34		1
35		1		33		1
36		29		17		ar
37		29		52		1
38		25		26		1
39		25		27		ar
40		6		7		ar
41		46		19		1
42		17		18		1
43		19		18		1
44		19		47		1
45		11		10		ar
46		11		42		1
47		10		9		ar
48		28		27		ar
49		28		51		1
50		27		50		1
51		7		39		1
52		7		8		ar
53		9		8		ar
54		9		41		1
55		8		40		1

