@<TRIPOS>MOLECULE
HYP-2005-CJCU-254-3
 51 53 0 0 0
SMALL
MULLIKEN_CHARGES
****
Gaussian 16 #p B3LYP/6-31G* opt
@<TRIPOS>ATOM
1		C		-2.2299		3.5769		0.4553		C.3		1		UNL1		-0.4362
2		C		-2.2153		2.6173		-0.7384		C.3		1		UNL1		-0.2515
3		C		-0.8300		2.3824		-1.3888		C.3		1		UNL1		-0.3365
4		C		0.2366		1.7810		-0.4991		C.ar		1		UNL1		0.0054
5		C		0.5376		0.4503		-0.4304		C.ar		1		UNL1		0.3223
6		C		-0.1718		-0.5860		-1.2977		C.3		1		UNL1		-0.4754
7		C		-1.6705		-0.8292		-1.1245		C.ar		1		UNL1		0.1384
8		C		-2.4437		-0.8429		-2.2709		C.ar		1		UNL1		-0.2061
9		C		-3.8215		-1.1561		-2.2489		C.ar		1		UNL1		-0.1276
10		C		-4.4349		-1.4645		-1.0602		C.ar		1		UNL1		-0.1909
11		C		-3.6933		-1.4672		0.1506		C.ar		1		UNL1		0.1445
12		C		-4.3192		-1.7902		1.3845		C.ar		1		UNL1		-0.1939
13		C		-3.6116		-1.7957		2.5638		C.ar		1		UNL1		-0.1310
14		C		-2.2371		-1.4671		2.5553		C.ar		1		UNL1		-0.1417
15		C		-1.6002		-1.1492		1.3756		C.ar		1		UNL1		-0.1937
16		C		-2.2918		-1.1434		0.1318		C.ar		1		UNL1		0.0735
17		N		1.5862		-0.0208		0.3907		N.ar		1		UNL1		-0.5686
18		C		1.9791		-1.4409		0.4491		C.3		1		UNL1		0.0437
19		O		2.5714		-1.9177		-0.7332		O.3		1		UNL1		-0.4677
20		C		3.8556		-1.3839		-1.0664		C.3		1		UNL1		-0.0468
21		C		4.9776		-1.8961		-0.1655		C.3		1		UNL1		-0.0650
22		O		6.1903		-1.4660		-0.7753		O.3		1		UNL1		-0.6218
23		C		2.3823		0.8439		1.1588		C.ar		1		UNL1		0.7816
24		O		3.3126		0.4644		1.8586		O.2		1		UNL1		-0.5269
25		N		2.0324		2.1692		1.0650		N.ar		1		UNL1		-0.6976
26		C		1.0418		2.7433		0.2583		C.ar		1		UNL1		0.6076
27		O		0.9250		3.9608		0.2236		O.2		1		UNL1		-0.5124
28		H		-3.2589		3.7395		0.7975		H		1		UNL1		0.1334
29		H		-1.7931		4.5470		0.1994		H		1		UNL1		0.1617
30		H		-1.6611		3.1772		1.3019		H		1		UNL1		0.1412
31		H		-2.8736		3.0114		-1.5249		H		1		UNL1		0.1302
32		H		-2.6418		1.6547		-0.4374		H		1		UNL1		0.1501
33		H		-0.4460		3.3473		-1.7382		H		1		UNL1		0.1688
34		H		-0.9722		1.7541		-2.2744		H		1		UNL1		0.1318
35		H		-0.0208		-0.2631		-2.3342		H		1		UNL1		0.1814
36		H		0.3521		-1.5405		-1.2388		H		1		UNL1		0.2100
37		H		-1.9781		-0.6095		-3.2256		H		1		UNL1		0.1277
38		H		-4.3858		-1.1512		-3.1773		H		1		UNL1		0.1351
39		H		-5.4933		-1.7106		-1.0267		H		1		UNL1		0.1339
40		H		-5.3789		-2.0343		1.3770		H		1		UNL1		0.1338
41		H		-4.1043		-2.0450		3.4993		H		1		UNL1		0.1349
42		H		-1.6788		-1.4587		3.4875		H		1		UNL1		0.1347
43		H		-0.5534		-0.8771		1.4083		H		1		UNL1		0.1384
44		H		1.0945		-2.0580		0.6048		H		1		UNL1		0.1702
45		H		2.6362		-1.5223		1.3139		H		1		UNL1		0.2019
46		H		3.8435		-0.2867		-1.0595		H		1		UNL1		0.1500
47		H		4.0463		-1.7126		-2.0915		H		1		UNL1		0.1662
48		H		4.8715		-1.4821		0.8458		H		1		UNL1		0.1558
49		H		4.9173		-2.9943		-0.1041		H		1		UNL1		0.1291
50		H		6.9025		-1.5638		-0.1269		H		1		UNL1		0.3994
51		H		2.6130		2.8123		1.5914		H		1		UNL1		0.3542
@<TRIPOS>BOND
1		37		8		1
2		38		9		1
3		35		6		1
4		34		3		1
5		8		9		ar
6		8		7		ar
7		9		10		ar
8		47		20		1
9		33		3		1
10		31		2		1
11		3		2		1
12		3		4		1
13		6		36		1
14		6		7		1
15		6		5		1
16		7		16		ar
17		20		46		1
18		20		19		1
19		20		21		1
20		10		39		1
21		10		11		ar
22		22		21		1
23		22		50		1
24		2		32		1
25		2		1		1
26		19		18		1
27		4		5		ar
28		4		26		ar
29		5		17		ar
30		21		49		1
31		21		48		1
32		16		11		ar
33		16		15		ar
34		11		12		ar
35		29		1		1
36		27		26		2
37		26		25		ar
38		17		18		1
39		17		23		ar
40		18		44		1
41		18		45		1
42		1		28		1
43		1		30		1
44		25		23		ar
45		25		51		1
46		23		24		2
47		15		43		1
48		15		14		ar
49		40		12		1
50		12		13		ar
51		14		13		ar
52		14		42		1
53		13		41		1

