@<TRIPOS>MOLECULE
HYP-2004-BMCL-3173-4S
 49 51 0 0 0
SMALL
MULLIKEN_CHARGES
****
Gaussian 16 #p B3LYP/6-31G* opt
@<TRIPOS>ATOM
1		C		-6.2403		-2.1563		1.4730		C.3		1		UNL1		-0.2287
2		O		-5.3271		-2.3309		0.3683		O.3		1		UNL1		-0.4291
3		C		-4.5599		-1.2766		0.0772		C.2		1		UNL1		0.6520
4		O		-4.6124		-0.2133		0.6703		O.2		1		UNL1		-0.4701
5		C		-3.6097		-1.5630		-1.0675		C.3		1		UNL1		-0.5581
6		S		-1.8601		-1.7626		-0.5198		S.3		1		UNL1		0.2123
7		C		-1.2530		-0.0807		-0.4182		C.ar		1		UNL1		0.3038
8		N		0.0200		0.0584		-0.6068		N.ar		1		UNL1		-0.4953
9		C		0.5637		1.3243		-0.4913		C.ar		1		UNL1		0.2425
10		C		2.0751		1.3160		-0.6611		C.3		1		UNL1		-0.4286
11		C		2.7904		0.3227		0.2474		C.ar		1		UNL1		0.1269
12		C		3.1335		0.7297		1.5232		C.ar		1		UNL1		-0.2034
13		C		3.8298		-0.1155		2.4162		C.ar		1		UNL1		-0.1295
14		C		4.1992		-1.3782		2.0196		C.ar		1		UNL1		-0.1926
15		C		3.8732		-1.8486		0.7206		C.ar		1		UNL1		0.1376
16		C		4.2549		-3.1508		0.2972		C.ar		1		UNL1		-0.1961
17		C		3.9343		-3.6124		-0.9577		C.ar		1		UNL1		-0.1322
18		C		3.2041		-2.7864		-1.8442		C.ar		1		UNL1		-0.1409
19		C		2.8185		-1.5201		-1.4653		C.ar		1		UNL1		-0.1749
20		C		3.1448		-0.9991		-0.1816		C.ar		1		UNL1		0.0825
21		C		-0.1949		2.4555		-0.2833		C.ar		1		UNL1		0.0261
22		C		0.2762		3.9072		-0.2432		C.3		1		UNL1		-0.1575
23		C		1.1290		4.2597		0.9920		C.3		1		UNL1		-0.4509
24		C		0.9320		4.3806		-1.5553		C.3		1		UNL1		-0.4473
25		C		-1.6361		2.2875		-0.0692		C.ar		1		UNL1		0.5634
26		O		-2.4492		3.1740		0.1700		O.2		1		UNL1		-0.5230
27		N		-2.0861		0.9488		-0.1297		N.ar		1		UNL1		-0.6606
28		H		-6.9355		-1.3403		1.2632		H		1		UNL1		0.1833
29		H		-5.6856		-1.9332		2.3872		H		1		UNL1		0.1856
30		H		-6.7694		-3.1046		1.5611		H		1		UNL1		0.1775
31		H		-3.8668		-2.5057		-1.5536		H		1		UNL1		0.2201
32		H		-3.6698		-0.7549		-1.8011		H		1		UNL1		0.2221
33		H		2.4754		2.3102		-0.4678		H		1		UNL1		0.1635
34		H		2.2968		1.0968		-1.7121		H		1		UNL1		0.1686
35		H		2.8650		1.7310		1.8505		H		1		UNL1		0.1310
36		H		4.0791		0.2451		3.4106		H		1		UNL1		0.1276
37		H		4.7463		-2.0346		2.6924		H		1		UNL1		0.1261
38		H		4.8083		-3.7791		0.9916		H		1		UNL1		0.1259
39		H		4.2335		-4.6099		-1.2685		H		1		UNL1		0.1258
40		H		2.9379		-3.1585		-2.8301		H		1		UNL1		0.1253
41		H		2.2272		-0.9214		-2.1477		H		1		UNL1		0.1361
42		H		-0.6514		4.4781		-0.1383		H		1		UNL1		0.1791
43		H		2.1244		3.8028		0.9671		H		1		UNL1		0.1450
44		H		1.2720		5.3456		1.0478		H		1		UNL1		0.1448
45		H		0.6328		3.9393		1.9144		H		1		UNL1		0.1544
46		H		1.0987		5.4640		-1.5181		H		1		UNL1		0.1440
47		H		0.2851		4.1713		-2.4144		H		1		UNL1		0.1483
48		H		1.9015		3.9072		-1.7436		H		1		UNL1		0.1424
49		H		-3.0618		0.7897		0.1424		H		1		UNL1		0.3952
@<TRIPOS>BOND
1		40		18		1
2		47		24		1
3		41		19		1
4		18		19		ar
5		18		17		ar
6		32		5		1
7		48		24		1
8		34		10		1
9		24		46		1
10		24		22		1
11		31		5		1
12		19		20		ar
13		39		17		1
14		5		6		1
15		5		3		1
16		17		16		ar
17		10		9		1
18		10		33		1
19		10		11		1
20		8		9		ar
21		8		7		ar
22		6		7		1
23		9		21		ar
24		7		27		ar
25		21		22		1
26		21		25		ar
27		22		42		1
28		22		23		1
29		20		11		ar
30		20		15		ar
31		27		25		ar
32		27		49		1
33		25		26		2
34		3		2		1
35		3		4		2
36		11		12		ar
37		16		15		ar
38		16		38		1
39		2		1		1
40		15		14		ar
41		43		23		1
42		23		44		1
43		23		45		1
44		28		1		1
45		1		30		1
46		1		29		1
47		12		35		1
48		12		13		ar
49		14		13		ar
50		14		37		1
51		13		36		1

