@<TRIPOS>MOLECULE
HYP-2005-CJCU-254-15
 57 60 0 0 0
SMALL
MULLIKEN_CHARGES
****
Gaussian 16 #p B3LYP/6-31G* opt
@<TRIPOS>ATOM
1		C		-3.4120		3.8434		0.5484		C.3		1		UNL1		-0.4520
2		C		-2.4663		2.7538		1.0934		C.3		1		UNL1		-0.1430
3		C		-2.1456		2.9916		2.5845		C.3		1		UNL1		-0.4583
4		C		-1.2039		2.6216		0.2452		C.ar		1		UNL1		-0.0059
5		C		-0.9268		1.5388		-0.5451		C.ar		1		UNL1		0.3136
6		C		-1.9367		0.4233		-0.7633		C.3		1		UNL1		-0.4656
7		C		-1.8235		-0.8081		0.1303		C.ar		1		UNL1		0.1142
8		C		-1.1797		-0.7440		1.3498		C.ar		1		UNL1		-0.2035
9		C		-1.0871		-1.8695		2.2030		C.ar		1		UNL1		-0.1384
10		C		-1.6461		-3.0665		1.8287		C.ar		1		UNL1		-0.1889
11		C		-2.3352		-3.1840		0.5919		C.ar		1		UNL1		0.1369
12		C		-2.9309		-4.4118		0.1986		C.ar		1		UNL1		-0.1928
13		C		-3.6141		-4.5227		-0.9906		C.ar		1		UNL1		-0.1313
14		C		-3.7321		-3.3989		-1.8396		C.ar		1		UNL1		-0.1317
15		C		-3.1612		-2.1941		-1.4902		C.ar		1		UNL1		-0.2021
16		C		-2.4390		-2.0419		-0.2734		C.ar		1		UNL1		0.0780
17		N		0.2691		1.4497		-1.2816		N.ar		1		UNL1		-0.5760
18		C		0.7368		0.2402		-2.0050		C.3		1		UNL1		0.0995
19		O		1.9675		-0.2343		-1.5524		O.3		1		UNL1		-0.4505
20		C		1.9656		-0.8702		-0.2770		C.3		1		UNL1		-0.0998
21		C		3.3905		-1.1778		0.1183		C.ar		1		UNL1		0.1227
22		C		4.4301		-0.3061		-0.2296		C.ar		1		UNL1		-0.1695
23		C		5.7361		-0.5738		0.1808		C.ar		1		UNL1		-0.1340
24		C		6.0173		-1.7076		0.9468		C.ar		1		UNL1		-0.1268
25		C		4.9844		-2.5789		1.2956		C.ar		1		UNL1		-0.1302
26		C		3.6787		-2.3166		0.8777		C.ar		1		UNL1		-0.1817
27		C		1.1360		2.5448		-1.4203		C.ar		1		UNL1		0.7905
28		O		2.0873		2.5530		-2.1815		O.2		1		UNL1		-0.5056
29		N		0.8198		3.6165		-0.6109		N.ar		1		UNL1		-0.6990
30		C		-0.2777		3.7617		0.2421		C.ar		1		UNL1		0.6039
31		O		-0.4099		4.8042		0.8734		O.2		1		UNL1		-0.5125
32		H		-4.3270		3.8869		1.1511		H		1		UNL1		0.1412
33		H		-3.7010		3.6372		-0.4892		H		1		UNL1		0.1328
34		H		-2.9309		4.8242		0.5832		H		1		UNL1		0.1824
35		H		-3.0011		1.8003		1.0514		H		1		UNL1		0.1312
36		H		-3.0759		2.9913		3.1646		H		1		UNL1		0.1388
37		H		-1.6422		3.9488		2.7308		H		1		UNL1		0.1897
38		H		-1.5039		2.1976		2.9841		H		1		UNL1		0.1365
39		H		-2.9368		0.8531		-0.6485		H		1		UNL1		0.1962
40		H		-1.8876		0.1286		-1.8147		H		1		UNL1		0.1721
41		H		-0.7266		0.1911		1.6644		H		1		UNL1		0.1458
42		H		-0.5683		-1.7762		3.1529		H		1		UNL1		0.1398
43		H		-1.5772		-3.9382		2.4748		H		1		UNL1		0.1360
44		H		-2.8393		-5.2678		0.8630		H		1		UNL1		0.1362
45		H		-4.0659		-5.4681		-1.2776		H		1		UNL1		0.1371
46		H		-4.2794		-3.4851		-2.7742		H		1		UNL1		0.1362
47		H		-3.2823		-1.3470		-2.1572		H		1		UNL1		0.1323
48		H		0.8969		0.5127		-3.0482		H		1		UNL1		0.1871
49		H		-0.0355		-0.5265		-1.9224		H		1		UNL1		0.1523
50		H		1.3605		-1.7890		-0.3069		H		1		UNL1		0.1428
51		H		1.5041		-0.2051		0.4682		H		1		UNL1		0.1469
52		H		4.2076		0.5687		-0.8328		H		1		UNL1		0.1663
53		H		6.5371		0.1054		-0.0994		H		1		UNL1		0.1315
54		H		7.0359		-1.9131		1.2653		H		1		UNL1		0.1273
55		H		5.1951		-3.4682		1.8840		H		1		UNL1		0.1266
56		H		2.8777		-3.0041		1.1420		H		1		UNL1		0.1218
57		H		1.4393		4.4160		-0.6834		H		1		UNL1		0.3529
@<TRIPOS>BOND
1		48		18		1
2		46		14		1
3		28		27		2
4		47		15		1
5		18		49		1
6		18		19		1
7		18		17		1
8		14		15		ar
9		14		13		ar
10		40		6		1
11		19		20		1
12		15		16		ar
13		27		17		ar
14		27		29		ar
15		17		5		ar
16		45		13		1
17		13		12		ar
18		52		22		1
19		6		39		1
20		6		5		1
21		6		7		1
22		57		29		1
23		29		30		ar
24		5		4		ar
25		33		1		1
26		50		20		1
27		20		21		1
28		20		51		1
29		16		7		ar
30		16		11		ar
31		22		21		ar
32		22		23		ar
33		53		23		1
34		21		26		ar
35		7		8		ar
36		23		24		ar
37		12		11		ar
38		12		44		1
39		30		4		ar
40		30		31		2
41		4		2		1
42		1		34		1
43		1		2		1
44		1		32		1
45		11		10		ar
46		26		56		1
47		26		25		ar
48		24		54		1
49		24		25		ar
50		35		2		1
51		2		3		1
52		25		55		1
53		8		41		1
54		8		9		ar
55		10		9		ar
56		10		43		1
57		9		42		1
58		3		37		1
59		3		38		1
60		3		36		1

