@<TRIPOS>MOLECULE
HYP-2004-BMCL-3173-4R
 55 58 0 0 0
SMALL
MULLIKEN_CHARGES
****
Gaussian 16 #p B3LYP/6-31G* opt
@<TRIPOS>ATOM
1		C		2.5339		4.2191		1.6411		C.3		1		UNL1		-0.4534
2		C		3.0324		3.1024		0.6995		C.3		1		UNL1		-0.1455
3		C		3.5292		3.6868		-0.6398		C.3		1		UNL1		-0.4619
4		C		1.9769		2.0206		0.5055		C.ar		1		UNL1		0.0361
5		C		2.0714		0.7230		0.9644		C.ar		1		UNL1		0.2351
6		C		3.2364		0.1540		1.7676		C.3		1		UNL1		-0.4317
7		C		3.7932		-1.1529		1.2237		C.ar		1		UNL1		0.1355
8		C		3.4038		-2.3456		1.8002		C.ar		1		UNL1		-0.1856
9		C		3.8915		-3.5904		1.3406		C.ar		1		UNL1		-0.1311
10		C		4.7790		-3.6392		0.2928		C.ar		1		UNL1		-0.1930
11		C		5.2142		-2.4432		-0.3369		C.ar		1		UNL1		0.1434
12		C		6.1345		-2.4733		-1.4191		C.ar		1		UNL1		-0.1965
13		C		6.5571		-1.3136		-2.0268		C.ar		1		UNL1		-0.1328
14		C		6.0731		-0.0651		-1.5716		C.ar		1		UNL1		-0.1446
15		C		5.1796		-0.0015		-0.5249		C.ar		1		UNL1		-0.1933
16		C		4.7181		-1.1778		0.1286		C.ar		1		UNL1		0.0767
17		N		1.0809		-0.2222		0.7755		N.ar		1		UNL1		-0.5013
18		C		0.0006		0.1378		0.1617		C.ar		1		UNL1		0.3180
19		S		-1.2406		-1.1465		0.0185		S.3		1		UNL1		0.2045
20		C		-2.2817		-0.5983		-1.4045		C.3		1		UNL1		-0.5679
21		C		-3.3396		0.4191		-0.9941		C.2		1		UNL1		0.4318
22		O		-3.0282		1.6072		-0.9629		O.2		1		UNL1		-0.4641
23		C		-4.7116		-0.0168		-0.6207		C.ar		1		UNL1		0.0834
24		C		-5.1001		-1.3636		-0.5392		C.ar		1		UNL1		-0.1710
25		C		-6.3989		-1.7094		-0.1755		C.ar		1		UNL1		-0.1332
26		C		-7.3188		-0.6977		0.1018		C.ar		1		UNL1		-0.0580
27		CL		-8.9556		-1.1258		0.5513		Cl		1		UNL1		0.0079
28		C		-6.9578		0.6508		0.0288		C.ar		1		UNL1		-0.1292
29		C		-5.6572		0.9818		-0.3271		C.ar		1		UNL1		-0.1476
30		N		-0.2117		1.3877		-0.3163		N.ar		1		UNL1		-0.6632
31		C		0.7475		2.4203		-0.1814		C.ar		1		UNL1		0.5765
32		O		0.4715		3.5325		-0.6204		O.2		1		UNL1		-0.5235
33		H		1.6715		4.7321		1.2086		H		1		UNL1		0.1829
34		H		2.2440		3.8127		2.6170		H		1		UNL1		0.1356
35		H		3.3294		4.9560		1.8047		H		1		UNL1		0.1374
36		H		3.8981		2.6434		1.1869		H		1		UNL1		0.1274
37		H		2.7230		4.2111		-1.1569		H		1		UNL1		0.1872
38		H		3.9067		2.8987		-1.3019		H		1		UNL1		0.1407
39		H		4.3462		4.3949		-0.4567		H		1		UNL1		0.1354
40		H		2.8492		-0.0407		2.7757		H		1		UNL1		0.1697
41		H		4.0331		0.8903		1.8836		H		1		UNL1		0.1616
42		H		2.6966		-2.3267		2.6248		H		1		UNL1		0.1270
43		H		3.5591		-4.5057		1.8229		H		1		UNL1		0.1273
44		H		5.1622		-4.5909		-0.0680		H		1		UNL1		0.1262
45		H		6.5017		-3.4389		-1.7596		H		1		UNL1		0.1274
46		H		7.2617		-1.3527		-2.8532		H		1		UNL1		0.1280
47		H		6.4085		0.8505		-2.0515		H		1		UNL1		0.1290
48		H		4.8205		0.9669		-0.1964		H		1		UNL1		0.1409
49		H		-1.6403		-0.1497		-2.1670		H		1		UNL1		0.2231
50		H		-2.7024		-1.5173		-1.8160		H		1		UNL1		0.2044
51		H		-4.3943		-2.1618		-0.7428		H		1		UNL1		0.1518
52		H		-6.6970		-2.7498		-0.1068		H		1		UNL1		0.1690
53		H		-7.6879		1.4215		0.2508		H		1		UNL1		0.1711
54		H		-5.3486		2.0201		-0.3855		H		1		UNL1		0.1842
55		H		-1.1185		1.6779		-0.6974		H		1		UNL1		0.3925
@<TRIPOS>BOND
1		46		13		1
2		49		20		1
3		47		14		1
4		13		14		ar
5		13		12		ar
6		50		20		1
7		45		12		1
8		14		15		ar
9		12		11		ar
10		20		21		1
11		20		19		1
12		38		3		1
13		37		3		1
14		21		22		2
15		21		23		1
16		51		24		1
17		55		30		1
18		3		39		1
19		3		2		1
20		23		24		ar
21		23		29		ar
22		32		31		2
23		24		25		ar
24		15		48		1
25		15		16		ar
26		54		29		1
27		11		16		ar
28		11		10		ar
29		29		28		ar
30		30		31		ar
31		30		18		ar
32		31		4		ar
33		25		52		1
34		25		26		ar
35		44		10		1
36		19		18		1
37		28		26		ar
38		28		53		1
39		26		27		1
40		16		7		ar
41		18		17		ar
42		10		9		ar
43		4		2		1
44		4		5		ar
45		2		36		1
46		2		1		1
47		17		5		ar
48		5		6		1
49		33		1		1
50		7		6		1
51		7		8		ar
52		9		8		ar
53		9		43		1
54		1		35		1
55		1		34		1
56		6		41		1
57		6		40		1
58		8		42		1

