@<TRIPOS>MOLECULE
HYP2005-MC-1233-4-14
 52 55 0 0 0
SMALL
MULLIKEN_CHARGES
****
Gaussian 16 #p B3LYP/6-31G* opt
@<TRIPOS>ATOM
1		C		-5.4655		-0.0345		-0.6862		C.3		1		UNL1		-0.4451
2		C		-4.4191		0.0991		0.4346		C.3		1		UNL1		-0.3354
3		C		-3.2911		1.0480		0.0953		C.ar		1		UNL1		-0.0139
4		C		-2.0814		0.6709		-0.4102		C.ar		1		UNL1		0.3380
5		C		-1.7910		-0.7703		-0.7762		C.3		1		UNL1		-0.4631
6		C		-0.9921		-1.5967		0.2268		C.ar		1		UNL1		0.1037
7		C		-0.7300		-1.1305		1.4987		C.ar		1		UNL1		-0.1982
8		C		-0.0078		-1.9087		2.4360		C.ar		1		UNL1		-0.1378
9		C		0.4467		-3.1585		2.0959		C.ar		1		UNL1		-0.1869
10		C		0.1949		-3.6890		0.8016		C.ar		1		UNL1		0.1353
11		C		0.6520		-4.9821		0.4335		C.ar		1		UNL1		-0.1933
12		C		0.3986		-5.4976		-0.8173		C.ar		1		UNL1		-0.1325
13		C		-0.3308		-4.7344		-1.7570		C.ar		1		UNL1		-0.1330
14		C		-0.7861		-3.4742		-1.4324		C.ar		1		UNL1		-0.2024
15		C		-0.5383		-2.9057		-0.1520		C.ar		1		UNL1		0.0777
16		N		-1.0871		1.6176		-0.6942		N.ar		1		UNL1		-0.5392
17		C		0.3014		1.2873		-0.9926		C.3		1		UNL1		-0.2657
18		C		1.2183		1.5202		0.2261		C.2		1		UNL1		0.4410
19		O		0.7399		1.7732		1.3177		O.2		1		UNL1		-0.4670
20		C		2.6906		1.4015		0.0245		C.ar		1		UNL1		0.0849
21		C		3.5246		1.6218		1.1343		C.ar		1		UNL1		-0.1527
22		C		4.9051		1.5210		1.0209		C.ar		1		UNL1		-0.1991
23		C		5.4479		1.1927		-0.2194		C.ar		1		UNL1		0.3956
24		F		6.7836		1.0916		-0.3381		F		1		UNL1		-0.2865
25		C		4.6556		0.9660		-1.3400		C.ar		1		UNL1		-0.2020
26		C		3.2733		1.0740		-1.2107		C.ar		1		UNL1		-0.1792
27		C		-1.2985		2.9935		-0.5422		C.ar		1		UNL1		0.8028
28		O		-0.4432		3.8211		-0.8165		O.2		1		UNL1		-0.5258
29		N		-2.5503		3.3318		-0.0784		N.ar		1		UNL1		-0.7062
30		C		-3.5825		2.4683		0.3030		C.ar		1		UNL1		0.6087
31		O		-4.6316		2.9206		0.7438		O.2		1		UNL1		-0.5153
32		H		-6.2792		-0.7006		-0.3777		H		1		UNL1		0.1473
33		H		-5.0253		-0.4410		-1.6050		H		1		UNL1		0.1347
34		H		-5.8976		0.9433		-0.9197		H		1		UNL1		0.1719
35		H		-4.9169		0.4974		1.3246		H		1		UNL1		0.1764
36		H		-4.0263		-0.8848		0.7096		H		1		UNL1		0.1449
37		H		-1.2893		-0.7805		-1.7517		H		1		UNL1		0.1688
38		H		-2.7506		-1.2643		-0.9561		H		1		UNL1		0.1939
39		H		-1.0633		-0.1402		1.7896		H		1		UNL1		0.1617
40		H		0.1845		-1.5019		3.4245		H		1		UNL1		0.1404
41		H		1.0033		-3.7611		2.8095		H		1		UNL1		0.1328
42		H		1.2082		-5.5626		1.1658		H		1		UNL1		0.1341
43		H		0.7536		-6.4892		-1.0839		H		1		UNL1		0.1340
44		H		-0.5361		-5.1454		-2.7418		H		1		UNL1		0.1326
45		H		-1.3518		-2.9148		-2.1704		H		1		UNL1		0.1290
46		H		0.3836		0.2440		-1.2975		H		1		UNL1		0.1920
47		H		0.6348		1.9162		-1.8211		H		1		UNL1		0.2067
48		H		3.0618		1.8749		2.0822		H		1		UNL1		0.1762
49		H		5.5639		1.6905		1.8660		H		1		UNL1		0.1588
50		H		5.1234		0.7140		-2.2856		H		1		UNL1		0.1568
51		H		2.6569		0.9003		-2.0868		H		1		UNL1		0.1464
52		H		-2.7170		4.3239		0.0470		H		1		UNL1		0.3533
@<TRIPOS>BOND
1		44		13		1
2		50		25		1
3		45		14		1
4		51		26		1
5		47		17		1
6		13		14		ar
7		13		12		ar
8		37		5		1
9		33		1		1
10		14		15		ar
11		25		26		ar
12		25		23		ar
13		46		17		1
14		26		20		ar
15		43		12		1
16		17		16		1
17		17		18		1
18		38		5		1
19		34		1		1
20		12		11		ar
21		28		27		2
22		5		4		1
23		5		6		1
24		16		27		ar
25		16		4		ar
26		1		32		1
27		1		2		1
28		27		29		ar
29		4		3		ar
30		24		23		1
31		23		22		ar
32		15		6		ar
33		15		10		ar
34		29		52		1
35		29		30		ar
36		20		18		1
37		20		21		ar
38		3		30		ar
39		3		2		1
40		18		19		2
41		6		7		ar
42		30		31		2
43		11		10		ar
44		11		42		1
45		2		36		1
46		2		35		1
47		10		9		ar
48		22		21		ar
49		22		49		1
50		21		48		1
51		7		39		1
52		7		8		ar
53		9		8		ar
54		9		41		1
55		8		40		1

