@<TRIPOS>MOLECULE
HYP2005-MC-1233-4-2
 52 55 0 0 0
SMALL
MULLIKEN_CHARGES
****
Gaussian 16 #p B3LYP/6-31G* opt
@<TRIPOS>ATOM
1		C		6.8985		0.3955		0.2278		C.3		1		UNL1		-0.5327
2		C		5.4121		0.6382		0.1282		C.ar		1		UNL1		0.1871
3		C		4.8264		1.0088		-1.0937		C.ar		1		UNL1		-0.1806
4		C		3.4640		1.2568		-1.1883		C.ar		1		UNL1		-0.1507
5		C		2.6361		1.1430		-0.0589		C.ar		1		UNL1		0.0852
6		C		1.1805		1.4128		-0.2258		C.2		1		UNL1		0.4370
7		O		0.6986		1.7004		-1.3080		O.2		1		UNL1		-0.4685
8		C		0.2772		1.2936		1.0201		C.3		1		UNL1		-0.2648
9		N		-1.0769		1.7654		0.7536		N.ar		1		UNL1		-0.5385
10		C		-2.1722		0.9279		0.5127		C.ar		1		UNL1		0.3391
11		C		-2.0369		-0.5341		0.8817		C.3		1		UNL1		-0.4575
12		C		-1.3939		-1.4565		-0.1496		C.ar		1		UNL1		0.1054
13		C		-1.0916		-1.0186		-1.4226		C.ar		1		UNL1		-0.2010
14		C		-0.5154		-1.8849		-2.3835		C.ar		1		UNL1		-0.1377
15		C		-0.2480		-3.1933		-2.0664		C.ar		1		UNL1		-0.1869
16		C		-0.5485		-3.6962		-0.7715		C.ar		1		UNL1		0.1355
17		C		-0.2842		-5.0479		-0.4259		C.ar		1		UNL1		-0.1934
18		C		-0.5840		-5.5346		0.8263		C.ar		1		UNL1		-0.1326
19		C		-1.1669		-4.6813		1.7905		C.ar		1		UNL1		-0.1331
20		C		-1.4337		-3.3630		1.4878		C.ar		1		UNL1		-0.2017
21		C		-1.1334		-2.8234		0.2063		C.ar		1		UNL1		0.0780
22		C		-3.3538		1.4206		0.0417		C.ar		1		UNL1		0.0006
23		C		-4.5676		0.5690		-0.2382		C.3		1		UNL1		-0.5430
24		C		-3.5016		2.8583		-0.1936		C.ar		1		UNL1		0.6011
25		O		-4.5047		3.4151		-0.6205		O.2		1		UNL1		-0.5142
26		N		-2.3722		3.6123		0.1454		N.ar		1		UNL1		-0.7050
27		C		-1.1499		3.1537		0.5844		C.ar		1		UNL1		0.8017
28		O		-0.2075		3.8927		0.8233		O.2		1		UNL1		-0.5255
29		C		3.2148		0.7710		1.1634		C.ar		1		UNL1		-0.1783
30		C		4.5827		0.5207		1.2505		C.ar		1		UNL1		-0.1859
31		H		7.2687		-0.1747		-0.6315		H		1		UNL1		0.1661
32		H		7.1566		-0.1541		1.1383		H		1		UNL1		0.1608
33		H		7.4510		1.3442		0.2469		H		1		UNL1		0.1747
34		H		5.4519		1.1016		-1.9787		H		1		UNL1		0.1333
35		H		3.0106		1.5420		-2.1319		H		1		UNL1		0.1657
36		H		0.2561		0.2514		1.3387		H		1		UNL1		0.1906
37		H		0.6979		1.8929		1.8304		H		1		UNL1		0.2067
38		H		-1.4961		-0.6049		1.8338		H		1		UNL1		0.1685
39		H		-3.0426		-0.9056		1.1043		H		1		UNL1		0.1903
40		H		-1.2758		0.0146		-1.6965		H		1		UNL1		0.1645
41		H		-0.2847		-1.4985		-3.3721		H		1		UNL1		0.1403
42		H		0.1955		-3.8637		-2.7986		H		1		UNL1		0.1318
43		H		0.1610		-5.6968		-1.1766		H		1		UNL1		0.1331
44		H		-0.3771		-6.5717		1.0755		H		1		UNL1		0.1329
45		H		-1.4081		-5.0684		2.7769		H		1		UNL1		0.1318
46		H		-1.8889		-2.7325		2.2448		H		1		UNL1		0.1287
47		H		-5.2821		1.1617		-0.8130		H		1		UNL1		0.1983
48		H		-5.0738		0.2522		0.6839		H		1		UNL1		0.1591
49		H		-4.3188		-0.3298		-0.8114		H		1		UNL1		0.1635
50		H		-2.4365		4.6138		0.0031		H		1		UNL1		0.3531
51		H		2.6079		0.6707		2.0581		H		1		UNL1		0.1357
52		H		5.0137		0.2306		2.2055		H		1		UNL1		0.1312
@<TRIPOS>BOND
1		41		14		1
2		42		15		1
3		14		15		ar
4		14		13		ar
5		35		4		1
6		15		16		ar
7		34		3		1
8		40		13		1
9		13		12		ar
10		7		6		2
11		4		3		ar
12		4		5		ar
13		43		17		1
14		3		2		ar
15		47		23		1
16		49		23		1
17		16		17		ar
18		16		21		ar
19		31		1		1
20		25		24		2
21		17		18		ar
22		23		22		1
23		23		48		1
24		6		5		1
25		6		8		1
26		24		22		ar
27		24		26		ar
28		12		21		ar
29		12		11		1
30		5		29		ar
31		50		26		1
32		22		10		ar
33		2		1		1
34		2		30		ar
35		26		27		ar
36		21		20		ar
37		1		33		1
38		1		32		1
39		10		9		ar
40		10		11		1
41		27		9		ar
42		27		28		2
43		9		8		1
44		18		44		1
45		18		19		ar
46		11		39		1
47		11		38		1
48		8		36		1
49		8		37		1
50		29		30		ar
51		29		51		1
52		30		52		1
53		20		19		ar
54		20		46		1
55		19		45		1

