@<TRIPOS>MOLECULE
HYP2005-MC-1233-4-13
 52 55 0 0 0
SMALL
MULLIKEN_CHARGES
****
Gaussian 16 #p B3LYP/6-31G* opt
@<TRIPOS>ATOM
1		C		-5.3773		0.2504		-0.6014		C.3		1		UNL1		-0.4475
2		C		-4.3225		0.9668		-1.4638		C.3		1		UNL1		-0.3320
3		C		-3.2083		1.5927		-0.6539		C.ar		1		UNL1		-0.0138
4		C		-2.0008		1.0190		-0.3759		C.ar		1		UNL1		0.3396
5		C		-1.6103		-0.3506		-0.8830		C.3		1		UNL1		-0.4541
6		C		-1.6760		-1.4907		0.1312		C.ar		1		UNL1		0.0981
7		C		-2.2641		-1.3284		1.3703		C.ar		1		UNL1		-0.1973
8		C		-2.3399		-2.3925		2.3015		C.ar		1		UNL1		-0.1373
9		C		-1.8237		-3.6251		1.9869		C.ar		1		UNL1		-0.1881
10		C		-1.2135		-3.8487		0.7232		C.ar		1		UNL1		0.1365
11		C		-0.6800		-5.1188		0.3781		C.ar		1		UNL1		-0.1935
12		C		-0.0973		-5.3356		-0.8497		C.ar		1		UNL1		-0.1314
13		C		-0.0254		-4.2823		-1.7898		C.ar		1		UNL1		-0.1326
14		C		-0.5309		-3.0367		-1.4854		C.ar		1		UNL1		-0.1999
15		C		-1.1364		-2.7735		-0.2250		C.ar		1		UNL1		0.0748
16		N		-1.0489		1.6767		0.4174		N.ar		1		UNL1		-0.5335
17		C		0.2815		1.1387		0.6745		C.3		1		UNL1		-0.2854
18		C		1.2710		1.4492		-0.4592		C.2		1		UNL1		0.4250
19		O		0.8732		1.9220		-1.5112		O.2		1		UNL1		-0.4607
20		C		2.7133		1.1310		-0.2413		C.ar		1		UNL1		0.0836
21		C		3.6139		1.4135		-1.2810		C.ar		1		UNL1		-0.1513
22		C		4.9689		1.1373		-1.1464		C.ar		1		UNL1		-0.1317
23		C		5.4291		0.5676		0.0436		C.ar		1		UNL1		-0.0582
24		CL		7.1364		0.2126		0.2228		Cl		1		UNL1		-0.0013
25		C		4.5568		0.2758		1.0924		C.ar		1		UNL1		-0.1334
26		C		3.2013		0.5611		0.9447		C.ar		1		UNL1		-0.1759
27		C		-1.2419		2.9753		0.9026		C.ar		1		UNL1		0.7927
28		O		-0.3926		3.5800		1.5407		O.2		1		UNL1		-0.5241
29		N		-2.4807		3.5053		0.6214		N.ar		1		UNL1		-0.7023
30		C		-3.5119		2.9260		-0.1261		C.ar		1		UNL1		0.6061
31		O		-4.5613		3.5342		-0.2933		O.2		1		UNL1		-0.5139
32		H		-5.8193		0.9487		0.1163		H		1		UNL1		0.1673
33		H		-6.1843		-0.1433		-1.2301		H		1		UNL1		0.1455
34		H		-4.9393		-0.5864		-0.0463		H		1		UNL1		0.1452
35		H		-4.8146		1.7752		-2.0134		H		1		UNL1		0.1757
36		H		-3.9255		0.2732		-2.2116		H		1		UNL1		0.1396
37		H		-0.6026		-0.2847		-1.3065		H		1		UNL1		0.1824
38		H		-2.2559		-0.5984		-1.7296		H		1		UNL1		0.1901
39		H		-2.6846		-0.3652		1.6425		H		1		UNL1		0.1427
40		H		-2.8107		-2.2222		3.2657		H		1		UNL1		0.1380
41		H		-1.8770		-4.4474		2.6961		H		1		UNL1		0.1346
42		H		-0.7440		-5.9232		1.1071		H		1		UNL1		0.1349
43		H		0.3055		-6.3130		-1.1003		H		1		UNL1		0.1359
44		H		0.4310		-4.4569		-2.7602		H		1		UNL1		0.1360
45		H		-0.4683		-2.2484		-2.2283		H		1		UNL1		0.1375
46		H		0.6336		1.6019		1.5980		H		1		UNL1		0.2213
47		H		0.2238		0.0599		0.8414		H		1		UNL1		0.1995
48		H		3.2269		1.8555		-2.1931		H		1		UNL1		0.1770
49		H		5.6654		1.3578		-1.9481		H		1		UNL1		0.1665
50		H		4.9349		-0.1648		2.0083		H		1		UNL1		0.1654
51		H		2.5326		0.3333		1.7686		H		1		UNL1		0.1540
52		H		-2.6471		4.4408		0.9745		H		1		UNL1		0.3536
@<TRIPOS>BOND
1		44		13		1
2		45		14		1
3		36		2		1
4		48		21		1
5		35		2		1
6		49		22		1
7		13		14		ar
8		13		12		ar
9		38		5		1
10		19		18		2
11		14		15		ar
12		2		3		1
13		2		1		1
14		37		5		1
15		21		22		ar
16		21		20		ar
17		33		1		1
18		22		23		ar
19		43		12		1
20		5		4		1
21		5		6		1
22		12		11		ar
23		3		4		ar
24		3		30		ar
25		1		34		1
26		1		32		1
27		18		20		1
28		18		17		1
29		4		16		ar
30		31		30		2
31		20		26		ar
32		15		6		ar
33		15		10		ar
34		30		29		ar
35		23		24		1
36		23		25		ar
37		6		7		ar
38		11		10		ar
39		11		42		1
40		16		17		1
41		16		27		ar
42		29		27		ar
43		29		52		1
44		17		47		1
45		17		46		1
46		10		9		ar
47		27		28		2
48		26		25		ar
49		26		51		1
50		25		50		1
51		7		39		1
52		7		8		ar
53		9		8		ar
54		9		41		1
55		8		40		1

