@<TRIPOS>MOLECULE
HYP2005-MC-1233-4-16
 52 55 0 0 0
SMALL
MULLIKEN_CHARGES
****
Gaussian 16 #p B3LYP/6-31G* opt
@<TRIPOS>ATOM
1		C		-4.4500		-1.1699		0.6283		C.3		1		UNL1		-0.4549
2		C		-3.6438		-1.6224		-0.6031		C.3		1		UNL1		-0.3291
3		C		-2.2180		-2.0319		-0.2959		C.ar		1		UNL1		-0.0091
4		C		-1.0726		-1.3667		-0.6326		C.ar		1		UNL1		0.3531
5		C		-0.9757		-0.0251		-1.3644		C.3		1		UNL1		-0.4774
6		C		-2.0907		1.0043		-1.2944		C.ar		1		UNL1		0.1191
7		C		-2.7710		1.3402		-2.4494		C.ar		1		UNL1		-0.2054
8		C		-3.7609		2.3496		-2.4637		C.ar		1		UNL1		-0.1296
9		C		-4.0580		3.0359		-1.3110		C.ar		1		UNL1		-0.1890
10		C		-3.3683		2.7503		-0.1026		C.ar		1		UNL1		0.1443
11		C		-3.6471		3.4682		1.0911		C.ar		1		UNL1		-0.1963
12		C		-2.9609		3.2033		2.2539		C.ar		1		UNL1		-0.1292
13		C		-1.9589		2.2051		2.2699		C.ar		1		UNL1		-0.1450
14		C		-1.6669		1.4832		1.1329		C.ar		1		UNL1		-0.2083
15		C		-2.3615		1.7260		-0.0855		C.ar		1		UNL1		0.0784
16		N		0.1900		-1.9483		-0.3707		N.ar		1		UNL1		-0.5529
17		C		1.4628		-1.3827		-0.8051		C.3		1		UNL1		-0.2768
18		C		2.0590		-0.4017		0.2263		C.2		1		UNL1		0.4361
19		O		1.3908		-0.0479		1.1815		O.2		1		UNL1		-0.4438
20		C		3.4452		0.0882		-0.0170		C.ar		1		UNL1		0.0140
21		C		4.2171		-0.3690		-1.1039		C.ar		1		UNL1		-0.1872
22		C		5.5075		0.0860		-1.3443		C.ar		1		UNL1		-0.2005
23		C		6.0462		1.0276		-0.4717		C.ar		1		UNL1		0.4084
24		F		7.2906		1.4793		-0.6854		F		1		UNL1		-0.2805
25		C		5.3370		1.5178		0.6167		C.ar		1		UNL1		-0.2783
26		C		4.0488		1.0420		0.8286		C.ar		1		UNL1		0.3653
27		F		3.3897		1.5353		1.8789		F		1		UNL1		-0.2542
28		C		0.3484		-3.1245		0.3704		C.ar		1		UNL1		0.7942
29		O		1.4450		-3.5899		0.6505		O.2		1		UNL1		-0.5298
30		N		-0.8298		-3.7280		0.7324		N.ar		1		UNL1		-0.6990
31		C		-2.1255		-3.3183		0.4093		C.ar		1		UNL1		0.6042
32		O		-3.0770		-4.0211		0.7255		O.2		1		UNL1		-0.5116
33		H		-4.0049		-0.2875		1.0966		H		1		UNL1		0.1569
34		H		-4.4993		-1.9728		1.3683		H		1		UNL1		0.1718
35		H		-5.4745		-0.9170		0.3320		H		1		UNL1		0.1381
36		H		-4.1371		-2.5067		-1.0245		H		1		UNL1		0.1604
37		H		-3.6684		-0.8483		-1.3677		H		1		UNL1		0.1510
38		H		-0.7844		-0.2419		-2.4249		H		1		UNL1		0.1742
39		H		-0.0778		0.4774		-0.9954		H		1		UNL1		0.1821
40		H		-2.5484		0.8081		-3.3718		H		1		UNL1		0.1251
41		H		-4.2806		2.5766		-3.3904		H		1		UNL1		0.1324
42		H		-4.8181		3.8134		-1.3087		H		1		UNL1		0.1321
43		H		-4.4152		4.2377		1.0664		H		1		UNL1		0.1306
44		H		-3.1830		3.7612		3.1595		H		1		UNL1		0.1323
45		H		-1.4117		2.0045		3.1867		H		1		UNL1		0.1400
46		H		-0.8918		0.7258		1.1759		H		1		UNL1		0.1820
47		H		2.1454		-2.2254		-0.9265		H		1		UNL1		0.2219
48		H		1.3566		-0.8952		-1.7765		H		1		UNL1		0.1886
49		H		3.8029		-1.1070		-1.7811		H		1		UNL1		0.1594
50		H		6.0952		-0.2745		-2.1808		H		1		UNL1		0.1630
51		H		5.7688		2.2510		1.2874		H		1		UNL1		0.1760
52		H		-0.7419		-4.5983		1.2444		H		1		UNL1		0.3529
@<TRIPOS>BOND
1		41		8		1
2		40		7		1
3		8		7		ar
4		8		9		ar
5		7		6		ar
6		38		5		1
7		50		22		1
8		49		21		1
9		48		17		1
10		37		2		1
11		5		6		1
12		5		39		1
13		5		4		1
14		22		21		ar
15		22		23		ar
16		9		42		1
17		9		10		ar
18		6		15		ar
19		21		20		ar
20		36		2		1
21		47		17		1
22		17		16		1
23		17		18		1
24		24		23		1
25		4		16		ar
26		4		3		ar
27		2		3		1
28		2		1		1
29		23		25		ar
30		16		28		ar
31		3		31		ar
32		10		15		ar
33		10		11		ar
34		15		14		ar
35		20		18		1
36		20		26		ar
37		18		19		2
38		35		1		1
39		28		29		2
40		28		30		ar
41		31		32		2
42		31		30		ar
43		25		26		ar
44		25		51		1
45		1		33		1
46		1		34		1
47		30		52		1
48		26		27		1
49		43		11		1
50		11		12		ar
51		14		46		1
52		14		13		ar
53		12		13		ar
54		12		44		1
55		13		45		1

