@<TRIPOS>MOLECULE
HYP2005-MC-1233-4-4
 49 52 0 0 0
SMALL
MULLIKEN_CHARGES
****
Gaussian 16 #p B3LYP/6-31G* opt
@<TRIPOS>ATOM
1		C		4.4519		-1.0178		-1.4630		C.3		1		UNL1		-0.5439
2		C		3.3520		-1.6805		-0.6699		C.ar		1		UNL1		0.0009
3		C		2.1495		-1.0966		-0.4010		C.ar		1		UNL1		0.3403
4		C		1.8100		0.2827		-0.9160		C.3		1		UNL1		-0.4525
5		C		1.9520		1.4264		0.0859		C.ar		1		UNL1		0.1006
6		C		2.5826		1.2479		1.3014		C.ar		1		UNL1		-0.1986
7		C		2.7315		2.3119		2.2237		C.ar		1		UNL1		-0.1362
8		C		2.2462		3.5604		1.9233		C.ar		1		UNL1		-0.1881
9		C		1.5964		3.8012		0.6826		C.ar		1		UNL1		0.1364
10		C		1.0951		5.0881		0.3517		C.ar		1		UNL1		-0.1936
11		C		0.4754		5.3212		-0.8548		C.ar		1		UNL1		-0.1314
12		C		0.3324		4.2682		-1.7870		C.ar		1		UNL1		-0.1327
13		C		0.8047		3.0065		-1.4956		C.ar		1		UNL1		-0.2004
14		C		1.4459		2.7263		-0.2570		C.ar		1		UNL1		0.0740
15		N		1.1781		-1.7430		0.3708		N.ar		1		UNL1		-0.5318
16		C		-0.1286		-1.1640		0.6540		C.3		1		UNL1		-0.2848
17		C		-1.1411		-1.4146		-0.4748		C.2		1		UNL1		0.4247
18		O		-0.7695		-1.8702		-1.5437		O.2		1		UNL1		-0.4605
19		C		-2.5703		-1.0592		-0.2308		C.ar		1		UNL1		0.0841
20		C		-3.0268		-0.5049		0.9749		C.ar		1		UNL1		-0.1759
21		C		-4.3712		-0.1828		1.1465		C.ar		1		UNL1		-0.1333
22		C		-5.2642		-0.4219		0.1018		C.ar		1		UNL1		-0.0581
23		CL		-6.9577		-0.0206		0.3111		Cl		1		UNL1		-0.0010
24		C		-4.8355		-0.9752		-1.1076		C.ar		1		UNL1		-0.1317
25		C		-3.4913		-1.2884		-1.2659		C.ar		1		UNL1		-0.1512
26		C		1.3376		-3.0585		0.8222		C.ar		1		UNL1		0.7917
27		O		0.4710		-3.6565		1.4428		O.2		1		UNL1		-0.5240
28		N		2.5632		-3.6122		0.5267		N.ar		1		UNL1		-0.7020
29		C		3.6203		-3.0380		-0.1923		C.ar		1		UNL1		0.5992
30		O		4.6515		-3.6721		-0.3714		O.2		1		UNL1		-0.5125
31		H		5.3552		-1.6252		-1.3792		H		1		UNL1		0.1982
32		H		4.2036		-0.9430		-2.5298		H		1		UNL1		0.1646
33		H		4.6763		-0.0097		-1.0986		H		1		UNL1		0.1606
34		H		0.7930		0.2597		-1.3200		H		1		UNL1		0.1826
35		H		2.4528		0.4843		-1.7787		H		1		UNL1		0.1916
36		H		2.9804		0.2712		1.5605		H		1		UNL1		0.1411
37		H		3.2335		2.1290		3.1697		H		1		UNL1		0.1378
38		H		2.3550		4.3828		2.6261		H		1		UNL1		0.1346
39		H		1.2141		5.8921		1.0742		H		1		UNL1		0.1348
40		H		0.0981		6.3113		-1.0948		H		1		UNL1		0.1358
41		H		-0.1525		4.4558		-2.7411		H		1		UNL1		0.1359
42		H		0.6883		2.2187		-2.2326		H		1		UNL1		0.1377
43		H		-0.4872		-1.6316		1.5727		H		1		UNL1		0.2206
44		H		-0.0282		-0.0909		0.8397		H		1		UNL1		0.1994
45		H		-2.3420		-0.3179		1.7957		H		1		UNL1		0.1539
46		H		-4.7250		0.2459		2.0776		H		1		UNL1		0.1655
47		H		-5.5478		-1.1546		-1.9057		H		1		UNL1		0.1666
48		H		-3.1286		-1.7187		-2.1935		H		1		UNL1		0.1770
49		H		2.7019		-4.5624		0.8513		H		1		UNL1		0.3541
@<TRIPOS>BOND
1		41		12		1
2		32		1		1
3		42		13		1
4		48		25		1
5		47		24		1
6		12		13		ar
7		12		11		ar
8		35		4		1
9		18		17		2
10		13		14		ar
11		1		31		1
12		1		33		1
13		1		2		1
14		34		4		1
15		25		24		ar
16		25		19		ar
17		24		22		ar
18		40		11		1
19		4		3		1
20		4		5		1
21		11		10		ar
22		2		3		ar
23		2		29		ar
24		17		19		1
25		17		16		1
26		3		15		ar
27		30		29		2
28		14		5		ar
29		14		9		ar
30		19		20		ar
31		29		28		ar
32		5		6		ar
33		22		23		1
34		22		21		ar
35		10		9		ar
36		10		39		1
37		15		16		1
38		15		26		ar
39		28		26		ar
40		28		49		1
41		16		44		1
42		16		43		1
43		9		8		ar
44		26		27		2
45		20		21		ar
46		20		45		1
47		21		46		1
48		6		36		1
49		6		7		ar
50		8		7		ar
51		8		38		1
52		7		37		1

