@<TRIPOS>MOLECULE
HYP2005-MC-1233-4-41
 53 56 0 0 0
SMALL
MULLIKEN_CHARGES
****
Gaussian 16 #p B3LYP/6-31G* opt
@<TRIPOS>ATOM
1		C		5.3291		1.6233		0.6048		C.3		1		UNL1		-0.4625
2		C		4.7388		0.3858		-0.0464		C.3		1		UNL1		-0.0335
3		O		3.7485		-0.1434		0.8690		O.3		1		UNL1		-0.5467
4		C		2.8248		-1.0349		0.3917		C.ar		1		UNL1		0.2112
5		C		1.5126		-0.9051		0.7628		C.ar		1		UNL1		0.3642
6		C		1.1070		0.2058		1.7209		C.3		1		UNL1		-0.4626
7		C		0.0340		1.2197		1.3298		C.ar		1		UNL1		0.1242
8		C		-1.0895		1.3374		2.1272		C.ar		1		UNL1		-0.2246
9		C		-2.1007		2.2913		1.8670		C.ar		1		UNL1		-0.1253
10		C		-1.9797		3.1427		0.7966		C.ar		1		UNL1		-0.1901
11		C		-0.8350		3.0859		-0.0419		C.ar		1		UNL1		0.1455
12		C		-0.6819		3.9807		-1.1345		C.ar		1		UNL1		-0.1955
13		C		0.4403		3.9455		-1.9294		C.ar		1		UNL1		-0.1291
14		C		1.4643		3.0090		-1.6586		C.ar		1		UNL1		-0.1459
15		C		1.3429		2.1222		-0.6117		C.ar		1		UNL1		-0.1787
16		C		0.1950		2.1213		0.2258		C.ar		1		UNL1		0.0863
17		N		0.5824		-1.8843		0.3978		N.ar		1		UNL1		-0.5571
18		C		-0.8395		-1.7999		0.7027		C.3		1		UNL1		-0.2697
19		C		-1.6308		-1.1288		-0.4358		C.2		1		UNL1		0.4381
20		O		-1.0444		-0.6751		-1.4014		O.2		1		UNL1		-0.4562
21		C		-3.1177		-1.0592		-0.3098		C.ar		1		UNL1		0.0875
22		C		-3.8177		-1.6095		0.7750		C.ar		1		UNL1		-0.1816
23		C		-5.2076		-1.5154		0.8367		C.ar		1		UNL1		-0.1350
24		C		-5.9098		-0.8712		-0.1835		C.ar		1		UNL1		-0.1177
25		C		-5.2200		-0.3203		-1.2679		C.ar		1		UNL1		-0.1338
26		C		-3.8336		-0.4138		-1.3306		C.ar		1		UNL1		-0.1509
27		C		0.9090		-2.9626		-0.4288		C.ar		1		UNL1		0.7969
28		O		0.0914		-3.7962		-0.7883		O.2		1		UNL1		-0.5239
29		N		2.2417		-3.0293		-0.7811		N.ar		1		UNL1		-0.7124
30		C		3.2798		-2.1755		-0.4032		C.ar		1		UNL1		0.6179
31		O		4.4340		-2.4138		-0.7371		O.2		1		UNL1		-0.5131
32		H		6.1236		2.0338		-0.0282		H		1		UNL1		0.1502
33		H		5.7618		1.3739		1.5792		H		1		UNL1		0.1626
34		H		4.5677		2.3967		0.7517		H		1		UNL1		0.1565
35		H		4.2573		0.6309		-1.0023		H		1		UNL1		0.1340
36		H		5.4938		-0.3787		-0.2351		H		1		UNL1		0.1859
37		H		2.0334		0.7362		1.9540		H		1		UNL1		0.2108
38		H		0.7917		-0.2689		2.6598		H		1		UNL1		0.1684
39		H		-1.2013		0.6820		2.9890		H		1		UNL1		0.1207
40		H		-2.9693		2.3411		2.5175		H		1		UNL1		0.1322
41		H		-2.7514		3.8778		0.5814		H		1		UNL1		0.1318
42		H		-1.4722		4.7022		-1.3279		H		1		UNL1		0.1301
43		H		0.5449		4.6369		-2.7610		H		1		UNL1		0.1321
44		H		2.3530		2.9878		-2.2836		H		1		UNL1		0.1302
45		H		2.1375		1.4145		-0.4167		H		1		UNL1		0.1525
46		H		-0.9915		-1.2567		1.6339		H		1		UNL1		0.1829
47		H		-1.2038		-2.8210		0.8357		H		1		UNL1		0.2132
48		H		-3.2883		-2.1196		1.5740		H		1		UNL1		0.1365
49		H		-5.7419		-1.9474		1.6783		H		1		UNL1		0.1381
50		H		-6.9932		-0.8001		-0.1352		H		1		UNL1		0.1397
51		H		-5.7661		0.1799		-2.0630		H		1		UNL1		0.1406
52		H		-3.2764		0.0051		-2.1620		H		1		UNL1		0.1694
53		H		2.5019		-3.8285		-1.3481		H		1		UNL1		0.3558
@<TRIPOS>BOND
1		43		13		1
2		44		14		1
3		52		26		1
4		51		25		1
5		13		14		ar
6		13		12		ar
7		14		15		ar
8		20		19		2
9		53		29		1
10		26		25		ar
11		26		21		ar
12		42		12		1
13		25		24		ar
14		12		11		ar
15		35		2		1
16		28		27		2
17		29		27		ar
18		29		30		ar
19		31		30		2
20		15		45		1
21		15		16		ar
22		19		21		1
23		19		18		1
24		27		17		ar
25		30		4		ar
26		21		22		ar
27		36		2		1
28		24		50		1
29		24		23		ar
30		2		1		1
31		2		3		1
32		11		16		ar
33		11		10		ar
34		32		1		1
35		16		7		ar
36		4		5		ar
37		4		3		1
38		17		18		1
39		17		5		ar
40		41		10		1
41		1		34		1
42		1		33		1
43		18		47		1
44		18		46		1
45		5		6		1
46		22		23		ar
47		22		48		1
48		10		9		ar
49		23		49		1
50		7		6		1
51		7		8		ar
52		6		37		1
53		6		38		1
54		9		8		ar
55		9		40		1
56		8		39		1

