@<TRIPOS>MOLECULE
HYP2005-MC-1233-4-40
 50 52 0 0 0
SMALL
MULLIKEN_CHARGES
****
Gaussian 16 #p B3LYP/6-31G* opt
@<TRIPOS>ATOM
1		C		1.3005		4.5941		-0.7802		C.3		1		UNL1		-0.2271
2		O		0.8922		3.2372		-1.0224		O.3		1		UNL1		-0.5218
3		C		1.5540		2.2671		-0.3212		C.ar		1		UNL1		0.2046
4		C		0.8420		1.3786		0.4336		C.ar		1		UNL1		0.3333
5		C		-0.6458		1.5534		0.6138		C.3		1		UNL1		-0.4361
6		C		-1.5484		0.6308		-0.2007		C.ar		1		UNL1		0.1017
7		C		-1.0572		-0.0930		-1.2675		C.ar		1		UNL1		-0.1846
8		C		-1.8994		-0.9159		-2.0531		C.ar		1		UNL1		-0.1384
9		C		-3.2375		-1.0168		-1.7624		C.ar		1		UNL1		-0.1873
10		C		-3.7947		-0.2881		-0.6776		C.ar		1		UNL1		0.1366
11		C		-5.1779		-0.3734		-0.3675		C.ar		1		UNL1		-0.1927
12		C		-5.7197		0.3461		0.6730		C.ar		1		UNL1		-0.1318
13		C		-4.8926		1.1894		1.4493		C.ar		1		UNL1		-0.1323
14		C		-3.5453		1.2917		1.1773		C.ar		1		UNL1		-0.1998
15		C		-2.9472		0.5572		0.1156		C.ar		1		UNL1		0.0783
16		N		1.4886		0.3176		1.0770		N.ar		1		UNL1		-0.5504
17		C		0.7934		-0.7339		1.8204		C.3		1		UNL1		-0.2487
18		C		1.0213		-2.1562		1.3030		C.2		1		UNL1		0.6650
19		O		0.8393		-3.1195		2.0126		O.2		1		UNL1		-0.4806
20		O		1.3672		-2.1925		0.0085		O.3		1		UNL1		-0.4682
21		C		1.6736		-3.5078		-0.5574		C.3		1		UNL1		0.1266
22		C		2.6639		-3.2519		-1.6838		C.3		1		UNL1		-0.4568
23		C		0.3829		-4.1823		-1.0072		C.3		1		UNL1		-0.4610
24		C		2.8761		0.1721		1.0640		C.ar		1		UNL1		0.8003
25		O		3.4480		-0.7206		1.6710		O.2		1		UNL1		-0.5205
26		N		3.5465		1.1141		0.3076		N.ar		1		UNL1		-0.7178
27		C		3.0071		2.1546		-0.4573		C.ar		1		UNL1		0.6167
28		O		3.7302		2.8738		-1.1332		O.2		1		UNL1		-0.5080
29		H		1.1825		4.8501		0.2811		H		1		UNL1		0.1362
30		H		2.3352		4.7493		-1.0901		H		1		UNL1		0.1961
31		H		0.6287		5.2119		-1.3794		H		1		UNL1		0.1637
32		H		-0.8700		2.5893		0.3419		H		1		UNL1		0.2036
33		H		-0.8769		1.4587		1.6818		H		1		UNL1		0.1669
34		H		-0.0022		-0.0376		-1.5145		H		1		UNL1		0.1453
35		H		-1.4758		-1.4644		-2.8899		H		1		UNL1		0.1347
36		H		-3.8902		-1.6491		-2.3591		H		1		UNL1		0.1330
37		H		-5.8057		-1.0209		-0.9750		H		1		UNL1		0.1340
38		H		-6.7800		0.2714		0.8979		H		1		UNL1		0.1344
39		H		-5.3233		1.7627		2.2658		H		1		UNL1		0.1333
40		H		-2.9378		1.9560		1.7831		H		1		UNL1		0.1298
41		H		1.1158		-0.7338		2.8638		H		1		UNL1		0.2110
42		H		-0.2794		-0.5496		1.7880		H		1		UNL1		0.2035
43		H		2.1394		-4.0944		0.2392		H		1		UNL1		0.1700
44		H		2.9732		-4.2022		-2.1323		H		1		UNL1		0.1516
45		H		2.2143		-2.6326		-2.4681		H		1		UNL1		0.1520
46		H		3.5544		-2.7415		-1.3048		H		1		UNL1		0.1682
47		H		-0.2815		-4.3470		-0.1550		H		1		UNL1		0.1776
48		H		0.6082		-5.1543		-1.4605		H		1		UNL1		0.1488
49		H		-0.1385		-3.5672		-1.7485		H		1		UNL1		0.1506
50		H		4.5534		1.0012		0.2658		H		1		UNL1		0.3565
@<TRIPOS>BOND
1		35		8		1
2		45		22		1
3		36		9		1
4		44		22		1
5		8		9		ar
6		8		7		ar
7		9		10		ar
8		49		23		1
9		22		46		1
10		22		21		1
11		34		7		1
12		48		23		1
13		31		1		1
14		7		6		ar
15		28		27		2
16		30		1		1
17		2		1		1
18		2		3		1
19		23		21		1
20		23		47		1
21		37		11		1
22		1		29		1
23		10		11		ar
24		10		15		ar
25		21		20		1
26		21		43		1
27		27		3		ar
28		27		26		ar
29		11		12		ar
30		3		4		ar
31		6		15		ar
32		6		5		1
33		20		18		1
34		15		14		ar
35		50		26		1
36		26		24		ar
37		32		5		1
38		4		5		1
39		4		16		ar
40		5		33		1
41		12		38		1
42		12		13		ar
43		24		16		ar
44		24		25		2
45		16		17		1
46		14		13		ar
47		14		40		1
48		18		17		1
49		18		19		2
50		13		39		1
51		42		17		1
52		17		41		1

