@<TRIPOS>MOLECULE
HYP2005-MC-1233-4-11
 55 58 0 0 0
SMALL
MULLIKEN_CHARGES
****
Gaussian 16 #p B3LYP/6-31G* opt
@<TRIPOS>ATOM
1		C		4.2734		1.4879		-1.1166		C.3		1		UNL1		-0.4488
2		C		2.8846		1.8325		-1.6842		C.3		1		UNL1		-0.3222
3		C		1.8180		2.0119		-0.6278		C.ar		1		UNL1		-0.0038
4		C		0.8166		1.1255		-0.3563		C.ar		1		UNL1		0.3550
5		C		0.6926		-0.2031		-1.0972		C.3		1		UNL1		-0.4621
6		C		1.8539		-1.1917		-1.0213		C.ar		1		UNL1		0.1376
7		C		2.3813		-1.6673		-2.2070		C.ar		1		UNL1		-0.2090
8		C		3.4003		-2.6467		-2.2381		C.ar		1		UNL1		-0.1285
9		C		3.8925		-3.1619		-1.0644		C.ar		1		UNL1		-0.1908
10		C		3.3810		-2.7202		0.1846		C.ar		1		UNL1		0.1436
11		C		3.8709		-3.2581		1.4049		C.ar		1		UNL1		-0.1945
12		C		3.3716		-2.8435		2.6177		C.ar		1		UNL1		-0.1311
13		C		2.3553		-1.8619		2.6581		C.ar		1		UNL1		-0.1416
14		C		1.8606		-1.3177		1.4929		C.ar		1		UNL1		-0.1972
15		C		2.3470		-1.7218		0.2182		C.ar		1		UNL1		0.0752
16		N		-0.1608		1.4102		0.6185		N.ar		1		UNL1		-0.5519
17		C		-1.3683		0.6112		0.8072		C.3		1		UNL1		-0.2986
18		C		-2.3526		0.7321		-0.3674		C.2		1		UNL1		0.4160
19		O		-2.0487		1.3762		-1.3588		O.2		1		UNL1		-0.4628
20		C		-3.6634		0.0334		-0.2524		C.ar		1		UNL1		0.0802
21		C		-4.0557		-0.6786		0.8910		C.ar		1		UNL1		-0.1796
22		C		-5.2968		-1.3103		0.9374		C.ar		1		UNL1		-0.1864
23		C		-6.1789		-1.2526		-0.1489		C.ar		1		UNL1		0.1873
24		C		-7.5153		-1.9526		-0.1076		C.3		1		UNL1		-0.5333
25		C		-5.7818		-0.5344		-1.2894		C.ar		1		UNL1		-0.1800
26		C		-4.5472		0.0973		-1.3432		C.ar		1		UNL1		-0.1535
27		C		-0.1549		2.6049		1.3568		C.ar		1		UNL1		0.7902
28		O		-1.0102		2.8841		2.1863		O.2		1		UNL1		-0.5253
29		N		0.9033		3.4370		1.0843		N.ar		1		UNL1		-0.6977
30		C		1.8945		3.2719		0.1103		C.ar		1		UNL1		0.6057
31		O		2.7330		4.1484		-0.0584		O.2		1		UNL1		-0.5152
32		H		5.0055		1.4073		-1.9284		H		1		UNL1		0.1382
33		H		4.2595		0.5365		-0.5760		H		1		UNL1		0.1525
34		H		4.6084		2.2739		-0.4342		H		1		UNL1		0.1710
35		H		2.5833		1.0732		-2.4092		H		1		UNL1		0.1336
36		H		2.9617		2.7818		-2.2270		H		1		UNL1		0.1658
37		H		-0.2100		-0.7264		-0.7796		H		1		UNL1		0.1689
38		H		0.5195		0.0354		-2.1516		H		1		UNL1		0.1946
39		H		2.0018		-1.2783		-3.1489		H		1		UNL1		0.1302
40		H		3.7873		-2.9852		-3.1951		H		1		UNL1		0.1345
41		H		4.6757		-3.9160		-1.0727		H		1		UNL1		0.1331
42		H		4.6541		-4.0112		1.3601		H		1		UNL1		0.1330
43		H		3.7561		-3.2644		3.5426		H		1		UNL1		0.1338
44		H		1.9650		-1.5292		3.6161		H		1		UNL1		0.1338
45		H		1.0972		-0.5522		1.5576		H		1		UNL1		0.1421
46		H		-1.8399		1.0006		1.7121		H		1		UNL1		0.2362
47		H		-1.1242		-0.4387		0.9962		H		1		UNL1		0.1847
48		H		-3.4046		-0.7402		1.7577		H		1		UNL1		0.1428
49		H		-5.5869		-1.8538		1.8331		H		1		UNL1		0.1343
50		H		-7.5068		-2.8537		-0.7347		H		1		UNL1		0.1737
51		H		-8.3157		-1.3063		-0.4853		H		1		UNL1		0.1692
52		H		-7.7775		-2.2600		0.9093		H		1		UNL1		0.1626
53		H		-6.4548		-0.4716		-2.1415		H		1		UNL1		0.1354
54		H		-4.2410		0.6549		-2.2223		H		1		UNL1		0.1665
55		H		0.9201		4.3065		1.6049		H		1		UNL1		0.3525
@<TRIPOS>BOND
1		40		8		1
2		39		7		1
3		35		2		1
4		8		7		ar
5		8		9		ar
6		36		2		1
7		54		26		1
8		7		6		ar
9		38		5		1
10		53		25		1
11		32		1		1
12		2		1		1
13		2		3		1
14		19		18		2
15		26		25		ar
16		26		20		ar
17		25		23		ar
18		1		33		1
19		1		34		1
20		5		6		1
21		5		37		1
22		5		4		1
23		41		9		1
24		9		10		ar
25		6		15		ar
26		50		24		1
27		3		4		ar
28		3		30		ar
29		51		24		1
30		18		20		1
31		18		17		1
32		4		16		ar
33		20		21		ar
34		23		24		1
35		23		22		ar
36		24		52		1
37		31		30		2
38		30		29		ar
39		10		15		ar
40		10		11		ar
41		15		14		ar
42		16		17		1
43		16		27		ar
44		17		47		1
45		17		46		1
46		21		22		ar
47		21		48		1
48		22		49		1
49		29		27		ar
50		29		55		1
51		27		28		2
52		42		11		1
53		11		12		ar
54		14		45		1
55		14		13		ar
56		12		13		ar
57		12		43		1
58		13		44		1

