@<TRIPOS>MOLECULE
HYP2005-MC-1233-4-30
 58 61 0 0 0
SMALL
MULLIKEN_CHARGES
****
Gaussian 16 #p B3LYP/6-31G* opt
@<TRIPOS>ATOM
1		C		5.7274		-1.0576		-2.3040		C.3		1		UNL1		-0.4435
2		C		4.6797		-0.9430		-1.1927		C.3		1		UNL1		-0.2578
3		C		3.4046		-1.7511		-1.5058		C.3		1		UNL1		-0.3353
4		C		2.3822		-1.7866		-0.3874		C.ar		1		UNL1		-0.0277
5		C		1.2622		-1.0056		-0.2827		C.ar		1		UNL1		0.3612
6		C		0.9410		0.0581		-1.3232		C.3		1		UNL1		-0.4474
7		C		0.6145		1.4986		-0.9219		C.ar		1		UNL1		0.0834
8		C		-0.4613		2.0998		-1.5535		C.ar		1		UNL1		-0.2114
9		C		-0.8058		3.4524		-1.3321		C.ar		1		UNL1		-0.1282
10		C		-0.0634		4.2154		-0.4644		C.ar		1		UNL1		-0.1921
11		C		1.0535		3.6554		0.2097		C.ar		1		UNL1		0.1426
12		C		1.8324		4.4395		1.1026		C.ar		1		UNL1		-0.1957
13		C		2.9232		3.9084		1.7504		C.ar		1		UNL1		-0.1297
14		C		3.2803		2.5585		1.5300		C.ar		1		UNL1		-0.1438
15		C		2.5446		1.7688		0.6735		C.ar		1		UNL1		-0.1923
16		C		1.4102		2.2802		-0.0168		C.ar		1		UNL1		0.0811
17		N		0.3497		-1.1853		0.7656		N.ar		1		UNL1		-0.5500
18		C		-0.9771		-0.5763		0.7810		C.3		1		UNL1		-0.2895
19		C		-1.9570		-1.2857		-0.1653		C.2		1		UNL1		0.4135
20		O		-1.5586		-2.1521		-0.9289		O.2		1		UNL1		-0.4672
21		C		-3.3863		-0.8643		-0.1339		C.ar		1		UNL1		0.0797
22		C		-3.8704		0.1418		0.7156		C.ar		1		UNL1		-0.1784
23		C		-5.2178		0.4962		0.6929		C.ar		1		UNL1		-0.1869
24		C		-6.1193		-0.1415		-0.1686		C.ar		1		UNL1		0.1864
25		C		-7.5843		0.2215		-0.1721		C.3		1		UNL1		-0.5326
26		C		-5.6278		-1.1464		-1.0186		C.ar		1		UNL1		-0.1806
27		C		-4.2864		-1.5034		-1.0033		C.ar		1		UNL1		-0.1551
28		C		0.5326		-2.1562		1.7612		C.ar		1		UNL1		0.7914
29		O		-0.2797		-2.3606		2.6515		O.2		1		UNL1		-0.5228
30		N		1.7156		-2.8516		1.6680		N.ar		1		UNL1		-0.6994
31		C		2.6633		-2.7883		0.6430		C.ar		1		UNL1		0.6090
32		O		3.6389		-3.5295		0.6671		O.2		1		UNL1		-0.5201
33		H		5.3381		-0.6865		-3.2607		H		1		UNL1		0.1372
34		H		6.0319		-2.1006		-2.4512		H		1		UNL1		0.1515
35		H		6.6259		-0.4779		-2.0640		H		1		UNL1		0.1438
36		H		4.4230		0.1132		-1.0374		H		1		UNL1		0.1321
37		H		5.1002		-1.3107		-0.2494		H		1		UNL1		0.1578
38		H		3.7032		-2.7898		-1.6862		H		1		UNL1		0.1725
39		H		2.9613		-1.3935		-2.4411		H		1		UNL1		0.1370
40		H		0.1000		-0.3187		-1.9177		H		1		UNL1		0.1939
41		H		1.7920		0.0967		-2.0061		H		1		UNL1		0.1875
42		H		-1.0631		1.5144		-2.2449		H		1		UNL1		0.1346
43		H		-1.6593		3.8783		-1.8520		H		1		UNL1		0.1353
44		H		-0.3164		5.2571		-0.2831		H		1		UNL1		0.1337
45		H		1.5474		5.4768		1.2624		H		1		UNL1		0.1327
46		H		3.5100		4.5208		2.4295		H		1		UNL1		0.1350
47		H		4.1418		2.1381		2.0417		H		1		UNL1		0.1379
48		H		2.8354		0.7365		0.5283		H		1		UNL1		0.1528
49		H		-0.9136		0.4810		0.5212		H		1		UNL1		0.2056
50		H		-1.3402		-0.6523		1.8070		H		1		UNL1		0.2250
51		H		-3.2044		0.6581		1.4000		H		1		UNL1		0.1458
52		H		-5.5757		1.2794		1.3567		H		1		UNL1		0.1329
53		H		-7.7597		1.1922		0.3018		H		1		UNL1		0.1614
54		H		-8.1746		-0.5246		0.3761		H		1		UNL1		0.1756
55		H		-7.9840		0.2616		-1.1914		H		1		UNL1		0.1658
56		H		-6.3104		-1.6514		-1.6983		H		1		UNL1		0.1339
57		H		-3.9057		-2.2795		-1.6592		H		1		UNL1		0.1657
58		H		1.8667		-3.5543		2.3827		H		1		UNL1		0.3523
@<TRIPOS>BOND
1		33		1		1
2		34		1		1
3		39		3		1
4		1		35		1
5		1		2		1
6		42		8		1
7		41		6		1
8		40		6		1
9		43		9		1
10		56		26		1
11		38		3		1
12		57		27		1
13		8		9		ar
14		8		7		ar
15		3		2		1
16		3		4		1
17		9		10		ar
18		6		7		1
19		6		5		1
20		2		36		1
21		2		37		1
22		55		25		1
23		26		27		ar
24		26		24		ar
25		27		21		ar
26		20		19		2
27		7		16		ar
28		10		44		1
29		10		11		ar
30		4		5		ar
31		4		31		ar
32		5		17		ar
33		25		24		1
34		25		53		1
35		25		54		1
36		24		23		ar
37		19		21		1
38		19		18		1
39		21		22		ar
40		16		11		ar
41		16		15		ar
42		11		12		ar
43		49		18		1
44		48		15		1
45		31		32		2
46		31		30		ar
47		15		14		ar
48		23		22		ar
49		23		52		1
50		22		51		1
51		17		18		1
52		17		28		ar
53		18		50		1
54		12		45		1
55		12		13		ar
56		14		13		ar
57		14		47		1
58		30		28		ar
59		30		58		1
60		13		46		1
61		28		29		2

