@<TRIPOS>MOLECULE
HYP2005-MC-1233-4-12
 56 59 0 0 0
SMALL
MULLIKEN_CHARGES
****
Gaussian 16 #p B3LYP/6-31G* opt
@<TRIPOS>ATOM
1		C		-4.6787		2.4281		-1.1724		C.3		1		UNL1		-0.4510
2		C		-3.2475		2.6349		-1.6984		C.3		1		UNL1		-0.3309
3		C		-2.1537		2.3184		-0.6964		C.ar		1		UNL1		-0.0217
4		C		-1.4321		1.1558		-0.6216		C.ar		1		UNL1		0.3481
5		C		-1.7050		-0.0079		-1.5635		C.3		1		UNL1		-0.4489
6		C		-1.9404		-1.4239		-1.0313		C.ar		1		UNL1		0.0779
7		C		-1.2909		-2.4551		-1.6898		C.ar		1		UNL1		-0.2086
8		C		-1.4959		-3.8120		-1.3522		C.ar		1		UNL1		-0.1278
9		C		-2.3620		-4.1431		-0.3391		C.ar		1		UNL1		-0.1912
10		C		-3.0583		-3.1298		0.3707		C.ar		1		UNL1		0.1428
11		C		-3.9621		-3.4633		1.4151		C.ar		1		UNL1		-0.1955
12		C		-4.6499		-2.4887		2.0999		C.ar		1		UNL1		-0.1301
13		C		-4.4576		-1.1289		1.7650		C.ar		1		UNL1		-0.1439
14		C		-3.5859		-0.7706		0.7599		C.ar		1		UNL1		-0.1932
15		C		-2.8560		-1.7476		0.0268		C.ar		1		UNL1		0.0819
16		N		-0.3836		1.0194		0.3004		N.ar		1		UNL1		-0.5456
17		C		0.5908		-0.0798		0.2730		C.3		1		UNL1		-0.2675
18		C		1.7433		0.1853		-0.7160		C.2		1		UNL1		0.3967
19		O		1.4633		0.4726		-1.8751		O.2		1		UNL1		-0.4763
20		C		3.1451		0.0028		-0.2753		C.ar		1		UNL1		0.0635
21		C		4.1218		-0.2268		-1.2579		C.ar		1		UNL1		-0.1587
22		C		5.4576		-0.4110		-0.9225		C.ar		1		UNL1		-0.1984
23		C		5.8445		-0.3457		0.4263		C.ar		1		UNL1		0.3905
24		O		7.1167		-0.5077		0.8702		O.3		1		UNL1		-0.4978
25		C		8.1474		-0.7443		-0.0806		C.3		1		UNL1		-0.2208
26		C		4.8823		-0.0907		1.4176		C.ar		1		UNL1		-0.1830
27		C		3.5505		0.0761		1.0729		C.ar		1		UNL1		-0.1799
28		C		-0.0564		2.0231		1.2196		C.ar		1		UNL1		0.7883
29		O		0.8753		1.9274		2.0087		O.2		1		UNL1		-0.5256
30		N		-0.8704		3.1299		1.1740		N.ar		1		UNL1		-0.6997
31		C		-1.8840		3.4025		0.2495		C.ar		1		UNL1		0.6046
32		O		-2.4733		4.4759		0.2909		O.2		1		UNL1		-0.5181
33		H		-5.4102		2.7591		-1.9184		H		1		UNL1		0.1453
34		H		-4.8836		1.3758		-0.9464		H		1		UNL1		0.1447
35		H		-4.8373		3.0151		-0.2625		H		1		UNL1		0.1690
36		H		-3.1053		2.0748		-2.6272		H		1		UNL1		0.1426
37		H		-3.1321		3.6927		-1.9564		H		1		UNL1		0.1756
38		H		-2.5784		0.2651		-2.1589		H		1		UNL1		0.1824
39		H		-0.8568		-0.0520		-2.2553		H		1		UNL1		0.2133
40		H		-0.5987		-2.2132		-2.4929		H		1		UNL1		0.1400
41		H		-0.9630		-4.5851		-1.8987		H		1		UNL1		0.1345
42		H		-2.5292		-5.1824		-0.0672		H		1		UNL1		0.1332
43		H		-4.1013		-4.5131		1.6622		H		1		UNL1		0.1323
44		H		-5.3387		-2.7594		2.8954		H		1		UNL1		0.1341
45		H		-5.0004		-0.3584		2.3057		H		1		UNL1		0.1366
46		H		-3.4513		0.2779		0.5283		H		1		UNL1		0.1505
47		H		0.9336		-0.2329		1.2917		H		1		UNL1		0.1961
48		H		0.0965		-0.9933		-0.0564		H		1		UNL1		0.2053
49		H		3.8095		-0.2641		-2.2967		H		1		UNL1		0.1606
50		H		6.1849		-0.6002		-1.7034		H		1		UNL1		0.1399
51		H		8.2396		0.0895		-0.7877		H		1		UNL1		0.1601
52		H		9.0687		-0.8328		0.4971		H		1		UNL1		0.1770
53		H		7.9752		-1.6751		-0.6357		H		1		UNL1		0.1579
54		H		5.2101		-0.0185		2.4496		H		1		UNL1		0.1494
55		H		2.8325		0.3260		1.8463		H		1		UNL1		0.1870
56		H		-0.6455		3.8672		1.8323		H		1		UNL1		0.3525
@<TRIPOS>BOND
1		36		2		1
2		40		7		1
3		49		21		1
4		39		5		1
5		38		5		1
6		37		2		1
7		33		1		1
8		41		8		1
9		19		18		2
10		50		22		1
11		2		1		1
12		2		3		1
13		7		8		ar
14		7		6		ar
15		5		6		1
16		5		4		1
17		8		9		ar
18		21		22		ar
19		21		20		ar
20		1		34		1
21		1		35		1
22		6		15		ar
23		22		23		ar
24		51		25		1
25		18		20		1
26		18		17		1
27		3		4		ar
28		3		31		ar
29		53		25		1
30		4		16		ar
31		9		42		1
32		9		10		ar
33		20		27		ar
34		25		52		1
35		25		24		1
36		48		17		1
37		15		10		ar
38		15		14		ar
39		31		32		2
40		31		30		ar
41		17		16		1
42		17		47		1
43		16		28		ar
44		10		11		ar
45		23		24		1
46		23		26		ar
47		46		14		1
48		14		13		ar
49		27		26		ar
50		27		55		1
51		30		28		ar
52		30		56		1
53		28		29		2
54		11		43		1
55		11		12		ar
56		26		54		1
57		13		12		ar
58		13		45		1
59		12		44		1

