@<TRIPOS>MOLECULE
HYP2005-MC-1233-4-17
 49 51 0 0 0
SMALL
MULLIKEN_CHARGES
****
Gaussian 16 #p B3LYP/6-31G* opt
@<TRIPOS>ATOM
1		C		-3.0745		4.8024		0.1327		C.3		1		UNL1		-0.4609
2		C		-1.5926		4.4823		0.0190		C.3		1		UNL1		-0.0497
3		O		-1.3759		3.3168		-0.8201		O.3		1		UNL1		-0.4598
4		C		-1.4576		2.1190		-0.2198		C.2		1		UNL1		0.6640
5		O		-1.6649		1.9354		0.9580		O.2		1		UNL1		-0.4791
6		C		-1.1912		1.0166		-1.2484		C.3		1		UNL1		-0.2551
7		N		-1.6444		-0.2834		-0.7661		N.ar		1		UNL1		-0.5361
8		C		-0.7925		-1.3241		-0.3691		C.ar		1		UNL1		0.3374
9		C		0.6721		-1.2013		-0.7352		C.3		1		UNL1		-0.4676
10		C		1.5514		-0.3635		0.1880		C.ar		1		UNL1		0.1048
11		C		1.0683		0.1599		1.3698		C.ar		1		UNL1		-0.1991
12		C		1.8949		0.9216		2.2316		C.ar		1		UNL1		-0.1396
13		C		3.2088		1.1518		1.9080		C.ar		1		UNL1		-0.1872
14		C		3.7569		0.6292		0.7052		C.ar		1		UNL1		0.1352
15		C		5.1143		0.8540		0.3546		C.ar		1		UNL1		-0.1934
16		C		5.6435		0.3419		-0.8084		C.ar		1		UNL1		-0.1322
17		C		4.8289		-0.4232		-1.6737		C.ar		1		UNL1		-0.1327
18		C		3.5064		-0.6583		-1.3634		C.ar		1		UNL1		-0.2004
19		C		2.9239		-0.1425		-0.1726		C.ar		1		UNL1		0.0786
20		C		-1.2814		-2.4332		0.2569		C.ar		1		UNL1		-0.0124
21		C		-0.4409		-3.5979		0.7315		C.3		1		UNL1		-0.3358
22		C		-0.3873		-4.7640		-0.2716		C.3		1		UNL1		-0.4451
23		C		-2.7236		-2.5724		0.4721		C.ar		1		UNL1		0.6075
24		O		-3.2725		-3.5253		1.0103		O.2		1		UNL1		-0.5144
25		N		-3.4877		-1.5085		-0.0205		N.ar		1		UNL1		-0.7079
26		C		-3.0330		-0.3496		-0.6081		C.ar		1		UNL1		0.8027
27		O		-3.7739		0.5504		-0.9740		O.2		1		UNL1		-0.5248
28		H		-3.5168		4.9558		-0.8567		H		1		UNL1		0.1631
29		H		-3.2108		5.7187		0.7187		H		1		UNL1		0.1502
30		H		-3.6071		3.9891		0.6332		H		1		UNL1		0.1865
31		H		-1.0426		5.2803		-0.4853		H		1		UNL1		0.1561
32		H		-1.1462		4.2947		0.9983		H		1		UNL1		0.1722
33		H		-0.1203		0.9945		-1.4443		H		1		UNL1		0.2022
34		H		-1.7087		1.2711		-2.1749		H		1		UNL1		0.2119
35		H		0.7402		-0.8200		-1.7622		H		1		UNL1		0.1720
36		H		1.0822		-2.2137		-0.7902		H		1		UNL1		0.1936
37		H		0.0306		0.0085		1.6460		H		1		UNL1		0.1625
38		H		1.4739		1.3224		3.1491		H		1		UNL1		0.1408
39		H		3.8494		1.7354		2.5649		H		1		UNL1		0.1323
40		H		5.7330		1.4416		1.0289		H		1		UNL1		0.1336
41		H		6.6843		0.5216		-1.0629		H		1		UNL1		0.1338
42		H		5.2493		-0.8301		-2.5894		H		1		UNL1		0.1329
43		H		2.9057		-1.2541		-2.0431		H		1		UNL1		0.1294
44		H		0.5705		-3.2657		0.9857		H		1		UNL1		0.1459
45		H		-0.8929		-3.9627		1.6595		H		1		UNL1		0.1765
46		H		-1.3967		-5.1313		-0.4804		H		1		UNL1		0.1717
47		H		0.1997		-5.5958		0.1341		H		1		UNL1		0.1476
48		H		0.0683		-4.4603		-1.2220		H		1		UNL1		0.1352
49		H		-4.4911		-1.5698		0.1102		H		1		UNL1		0.3535
@<TRIPOS>BOND
1		42		17		1
2		34		6		1
3		43		18		1
4		35		9		1
5		17		18		ar
6		17		16		ar
7		33		6		1
8		18		19		ar
9		6		7		1
10		6		4		1
11		48		22		1
12		41		16		1
13		27		26		2
14		28		1		1
15		3		4		1
16		3		2		1
17		16		15		ar
18		36		9		1
19		7		26		ar
20		7		8		ar
21		9		8		1
22		9		10		1
23		26		25		ar
24		31		2		1
25		46		22		1
26		8		20		ar
27		22		47		1
28		22		21		1
29		4		5		2
30		19		10		ar
31		19		14		ar
32		25		49		1
33		25		23		ar
34		2		1		1
35		2		32		1
36		1		30		1
37		1		29		1
38		10		11		ar
39		20		23		ar
40		20		21		1
41		15		14		ar
42		15		40		1
43		23		24		2
44		14		13		ar
45		21		44		1
46		21		45		1
47		11		37		1
48		11		12		ar
49		13		12		ar
50		13		39		1
51		12		38		1

