@<TRIPOS>MOLECULE
HYP2005-MC-1233-4-33
 55 58 0 0 0
SMALL
MULLIKEN_CHARGES
****
Gaussian 16 #p B3LYP/6-31G* opt
@<TRIPOS>ATOM
1		C		-6.3537		0.9723		1.7803		C.3		1		UNL1		-0.4432
2		C		-5.2386		-0.0418		1.5100		C.3		1		UNL1		-0.2529
3		C		-4.3499		0.3622		0.3159		C.3		1		UNL1		-0.3387
4		C		-3.2862		-0.6625		-0.0170		C.ar		1		UNL1		-0.0374
5		C		-2.0089		-0.6849		0.4743		C.ar		1		UNL1		0.3751
6		C		-1.5361		0.3434		1.4955		C.3		1		UNL1		-0.4610
7		C		-0.3305		1.2452		1.2226		C.ar		1		UNL1		0.1150
8		C		0.6751		1.2802		2.1721		C.ar		1		UNL1		-0.2197
9		C		1.7876		2.1456		2.0608		C.ar		1		UNL1		-0.1319
10		C		1.8886		2.9921		0.9844		C.ar		1		UNL1		-0.1913
11		C		0.8794		3.0116		-0.0142		C.ar		1		UNL1		0.1491
12		C		0.9660		3.9003		-1.1185		C.ar		1		UNL1		-0.1921
13		C		-0.0169		3.9364		-2.0797		C.ar		1		UNL1		-0.1277
14		C		-1.1314		3.0736		-1.9760		C.ar		1		UNL1		-0.1390
15		C		-1.2436		2.1961		-0.9203		C.ar		1		UNL1		-0.1802
16		C		-0.2522		2.1323		0.0966		C.ar		1		UNL1		0.0877
17		N		-1.1342		-1.7294		0.1492		N.ar		1		UNL1		-0.5520
18		C		0.2574		-1.7917		0.5756		C.3		1		UNL1		-0.2702
19		C		1.2009		-1.1475		-0.4622		C.2		1		UNL1		0.4404
20		O		0.7514		-0.6581		-1.4785		O.2		1		UNL1		-0.4362
21		C		2.6596		-1.1504		-0.1409		C.ar		1		UNL1		0.0098
22		C		3.2307		-2.0911		0.7352		C.ar		1		UNL1		-0.1825
23		C		4.5933		-2.1123		1.0144		C.ar		1		UNL1		-0.2022
24		C		5.4031		-1.1561		0.4098		C.ar		1		UNL1		0.4035
25		F		6.7210		-1.1559		0.6693		F		1		UNL1		-0.2851
26		C		4.8948		-0.1938		-0.4533		C.ar		1		UNL1		-0.2802
27		C		3.5312		-0.2087		-0.7191		C.ar		1		UNL1		0.3715
28		F		3.0577		0.7397		-1.5324		F		1		UNL1		-0.2592
29		C		-1.4848		-2.7621		-0.7311		C.ar		1		UNL1		0.8000
30		O		-0.7166		-3.6642		-1.0289		O.2		1		UNL1		-0.5245
31		N		-2.7736		-2.6938		-1.2066		N.ar		1		UNL1		-0.7039
32		C		-3.7381		-1.7255		-0.9192		C.ar		1		UNL1		0.6110
33		O		-4.8578		-1.8127		-1.4086		O.2		1		UNL1		-0.5179
34		H		-7.0091		1.0777		0.9076		H		1		UNL1		0.1527
35		H		-5.9451		1.9644		2.0107		H		1		UNL1		0.1388
36		H		-6.9746		0.6628		2.6285		H		1		UNL1		0.1450
37		H		-4.6166		-0.1599		2.4084		H		1		UNL1		0.1244
38		H		-5.6747		-1.0257		1.3000		H		1		UNL1		0.1576
39		H		-4.9898		0.4609		-0.5671		H		1		UNL1		0.1752
40		H		-3.9159		1.3514		0.4993		H		1		UNL1		0.1374
41		H		-1.3356		-0.1974		2.4300		H		1		UNL1		0.1701
42		H		-2.3938		0.9811		1.7184		H		1		UNL1		0.1916
43		H		0.6077		0.6292		3.0419		H		1		UNL1		0.1211
44		H		2.5534		2.1351		2.8313		H		1		UNL1		0.1325
45		H		2.7367		3.6651		0.8844		H		1		UNL1		0.1329
46		H		1.8301		4.5568		-1.1879		H		1		UNL1		0.1308
47		H		0.0618		4.6215		-2.9193		H		1		UNL1		0.1337
48		H		-1.9036		3.0966		-2.7398		H		1		UNL1		0.1363
49		H		-2.0945		1.5292		-0.8777		H		1		UNL1		0.1494
50		H		0.3852		-1.3096		1.5433		H		1		UNL1		0.1845
51		H		0.5073		-2.8492		0.6826		H		1		UNL1		0.2125
52		H		2.6000		-2.8432		1.1963		H		1		UNL1		0.1564
53		H		5.0306		-2.8501		1.6776		H		1		UNL1		0.1589
54		H		5.5370		0.5505		-0.9088		H		1		UNL1		0.1705
55		H		-3.0482		-3.4375		-1.8382		H		1		UNL1		0.3538
@<TRIPOS>BOND
1		47		13		1
2		48		14		1
3		13		14		ar
4		13		12		ar
5		14		15		ar
6		55		31		1
7		28		27		1
8		20		19		2
9		33		32		2
10		31		32		ar
11		31		29		ar
12		46		12		1
13		12		11		ar
14		30		29		2
15		15		49		1
16		15		16		ar
17		32		4		ar
18		54		26		1
19		29		17		ar
20		27		26		ar
21		27		21		ar
22		39		3		1
23		19		21		1
24		19		18		1
25		26		24		ar
26		21		22		ar
27		4		3		1
28		4		5		ar
29		11		16		ar
30		11		10		ar
31		16		7		ar
32		17		5		ar
33		17		18		1
34		3		40		1
35		3		2		1
36		24		25		1
37		24		23		ar
38		5		6		1
39		18		51		1
40		18		50		1
41		22		23		ar
42		22		52		1
43		45		10		1
44		34		1		1
45		10		9		ar
46		23		53		1
47		7		6		1
48		7		8		ar
49		38		2		1
50		6		42		1
51		6		41		1
52		2		1		1
53		2		37		1
54		1		35		1
55		1		36		1
56		9		8		ar
57		9		44		1
58		8		43		1

