@<TRIPOS>MOLECULE
HYP2005-MC-1233-4-19
 46 48 0 0 0
SMALL
MULLIKEN_CHARGES
****
Gaussian 16 #p B3LYP/6-31G* opt
@<TRIPOS>ATOM
1		C		1.6304		-4.2945		0.2877		C.3		1		UNL1		-0.4451
2		C		1.3978		-3.1546		-0.7200		C.3		1		UNL1		-0.3357
3		C		1.9279		-1.8179		-0.2503		C.ar		1		UNL1		-0.0127
4		C		1.1823		-0.8588		0.3703		C.ar		1		UNL1		0.3375
5		C		-0.2688		-1.0943		0.7348		C.3		1		UNL1		-0.4668
6		C		-1.3233		-0.4960		-0.1912		C.ar		1		UNL1		0.1043
7		C		-0.9804		0.1075		-1.3837		C.ar		1		UNL1		-0.1988
8		C		-1.9648		0.6447		-2.2488		C.ar		1		UNL1		-0.1399
9		C		-3.2948		0.5694		-1.9176		C.ar		1		UNL1		-0.1875
10		C		-3.7012		-0.0488		-0.7040		C.ar		1		UNL1		0.1352
11		C		-5.0722		-0.1396		-0.3459		C.ar		1		UNL1		-0.1935
12		C		-5.4631		-0.7445		0.8271		C.ar		1		UNL1		-0.1322
13		C		-4.4896		-1.2888		1.6953		C.ar		1		UNL1		-0.1327
14		C		-3.1500		-1.2154		1.3780		C.ar		1		UNL1		-0.2006
15		C		-2.7081		-0.5944		0.1770		C.ar		1		UNL1		0.0786
16		N		1.7546		0.3597		0.7639		N.ar		1		UNL1		-0.5366
17		C		0.9968		1.5124		1.2366		C.3		1		UNL1		-0.2558
18		C		0.9658		2.6293		0.1909		C.2		1		UNL1		0.6594
19		O		1.2228		2.5004		-0.9832		O.2		1		UNL1		-0.4745
20		O		0.5654		3.7736		0.7689		O.3		1		UNL1		-0.4494
21		C		0.4604		4.9072		-0.1125		C.3		1		UNL1		-0.2214
22		C		3.1182		0.6334		0.6071		C.ar		1		UNL1		0.8025
23		O		3.6168		1.6876		0.9703		O.2		1		UNL1		-0.5235
24		N		3.8421		-0.3823		0.0242		N.ar		1		UNL1		-0.7078
25		C		3.3610		-1.6020		-0.4643		C.ar		1		UNL1		0.6078
26		O		4.1260		-2.3947		-0.9984		O.2		1		UNL1		-0.5141
27		H		1.2648		-5.2461		-0.1145		H		1		UNL1		0.1477
28		H		1.1139		-4.1077		1.2371		H		1		UNL1		0.1352
29		H		2.6989		-4.4030		0.4975		H		1		UNL1		0.1719
30		H		0.3360		-3.0809		-0.9749		H		1		UNL1		0.1457
31		H		1.9257		-3.4014		-1.6467		H		1		UNL1		0.1767
32		H		-0.4283		-0.7386		1.7608		H		1		UNL1		0.1718
33		H		-0.4217		-2.1758		0.7924		H		1		UNL1		0.1938
34		H		0.0630		0.1956		-1.6663		H		1		UNL1		0.1620
35		H		-1.6523		1.1184		-3.1749		H		1		UNL1		0.1410
36		H		-4.0561		0.9793		-2.5769		H		1		UNL1		0.1324
37		H		-5.8132		0.2795		-1.0227		H		1		UNL1		0.1337
38		H		-6.5161		-0.8073		1.0872		H		1		UNL1		0.1340
39		H		-4.8002		-1.7698		2.6188		H		1		UNL1		0.1332
40		H		-2.4247		-1.6475		2.0599		H		1		UNL1		0.1295
41		H		-0.0317		1.2275		1.4522		H		1		UNL1		0.2025
42		H		1.4470		1.9027		2.1510		H		1		UNL1		0.2141
43		H		-0.2646		4.7075		-0.9058		H		1		UNL1		0.1729
44		H		0.1273		5.7337		0.5151		H		1		UNL1		0.1694
45		H		1.4322		5.1287		-0.5599		H		1		UNL1		0.1817
46		H		4.8305		-0.1978		-0.1057		H		1		UNL1		0.3538
@<TRIPOS>BOND
1		35		8		1
2		36		9		1
3		8		9		ar
4		8		7		ar
5		9		10		ar
6		34		7		1
7		31		2		1
8		7		6		ar
9		37		11		1
10		26		25		2
11		19		18		2
12		30		2		1
13		43		21		1
14		2		3		1
15		2		1		1
16		10		11		ar
17		10		15		ar
18		45		21		1
19		25		3		ar
20		25		24		ar
21		11		12		ar
22		3		4		ar
23		6		15		ar
24		6		5		1
25		27		1		1
26		21		44		1
27		21		20		1
28		46		24		1
29		24		22		ar
30		15		14		ar
31		18		20		1
32		18		17		1
33		1		29		1
34		1		28		1
35		4		5		1
36		4		16		ar
37		22		16		ar
38		22		23		2
39		5		33		1
40		5		32		1
41		16		17		1
42		12		38		1
43		12		13		ar
44		17		41		1
45		17		42		1
46		14		13		ar
47		14		40		1
48		13		39		1

