@<TRIPOS>MOLECULE
HYP2005-MC-1233-4-38
 50 53 0 0 0
SMALL
MULLIKEN_CHARGES
****
Gaussian 16 #p B3LYP/6-31G* opt
@<TRIPOS>ATOM
1		C		-4.2752		-1.9336		0.7653		C.3		1		UNL1		-0.2152
2		O		-3.2941		-1.2750		-0.0449		O.3		1		UNL1		-0.5116
3		C		-2.0659		-1.8659		-0.0918		C.ar		1		UNL1		0.1913
4		C		-0.9523		-1.2436		0.3920		C.ar		1		UNL1		0.3855
5		C		-0.9429		0.0871		1.1318		C.3		1		UNL1		-0.4857
6		C		-2.1873		0.9541		1.1462		C.ar		1		UNL1		0.1595
7		C		-2.9102		1.0777		2.3148		C.ar		1		UNL1		-0.2134
8		C		-4.0348		1.9324		2.4044		C.ar		1		UNL1		-0.1335
9		C		-4.4200		2.6776		1.3168		C.ar		1		UNL1		-0.1908
10		C		-3.6949		2.6026		0.0963		C.ar		1		UNL1		0.1383
11		C		-4.0687		3.3791		-1.0324		C.ar		1		UNL1		-0.1970
12		C		-3.3592		3.3064		-2.2095		C.ar		1		UNL1		-0.1294
13		C		-2.2403		2.4476		-2.3061		C.ar		1		UNL1		-0.1414
14		C		-1.8508		1.6787		-1.2305		C.ar		1		UNL1		-0.2072
15		C		-2.5595		1.7312		0.0009		C.ar		1		UNL1		0.1031
16		N		0.3062		-1.8579		0.2530		N.ar		1		UNL1		-0.5610
17		C		1.5510		-1.2371		0.6894		C.3		1		UNL1		-0.2697
18		C		2.1213		-0.2782		-0.3664		C.2		1		UNL1		0.4299
19		O		1.4637		0.0068		-1.3543		O.2		1		UNL1		-0.4533
20		C		3.4866		0.3009		-0.1783		C.ar		1		UNL1		0.0177
21		C		4.0075		1.0904		-1.2219		C.ar		1		UNL1		-0.1649
22		C		5.2666		1.6678		-1.1503		C.ar		1		UNL1		-0.1932
23		C		6.0265		1.4546		-0.0009		C.ar		1		UNL1		0.4051
24		F		7.2459		2.0050		0.0879		F		1		UNL1		-0.2796
25		C		5.5640		0.6906		1.0634		C.ar		1		UNL1		-0.2736
26		C		4.2999		0.1286		0.9499		C.ar		1		UNL1		0.3345
27		F		3.8596		-0.6030		1.9966		F		1		UNL1		-0.2848
28		C		0.4913		-3.0623		-0.4337		C.ar		1		UNL1		0.7937
29		O		1.5918		-3.5643		-0.6135		O.2		1		UNL1		-0.5256
30		N		-0.6733		-3.6538		-0.8731		N.ar		1		UNL1		-0.7105
31		C		-1.9766		-3.1560		-0.7852		C.ar		1		UNL1		0.6203
32		O		-2.9169		-3.7800		-1.2551		O.2		1		UNL1		-0.5055
33		H		-5.1825		-1.3338		0.6736		H		1		UNL1		0.1667
34		H		-4.4596		-2.9488		0.4056		H		1		UNL1		0.1810
35		H		-3.9589		-1.9523		1.8167		H		1		UNL1		0.1292
36		H		-0.6657		-0.1225		2.1745		H		1		UNL1		0.1754
37		H		-0.1232		0.6862		0.7203		H		1		UNL1		0.1814
38		H		-2.6114		0.5056		3.1908		H		1		UNL1		0.1193
39		H		-4.5837		1.9986		3.3399		H		1		UNL1		0.1280
40		H		-5.2793		3.3415		1.3752		H		1		UNL1		0.1283
41		H		-4.9315		4.0360		-0.9481		H		1		UNL1		0.1279
42		H		-3.6566		3.9059		-3.0657		H		1		UNL1		0.1288
43		H		-1.6846		2.3894		-3.2380		H		1		UNL1		0.1323
44		H		-0.9945		1.0201		-1.3362		H		1		UNL1		0.1640
45		H		1.4160		-0.7153		1.6380		H		1		UNL1		0.1927
46		H		2.2665		-2.0410		0.8634		H		1		UNL1		0.2286
47		H		3.3821		1.2301		-2.0969		H		1		UNL1		0.1876
48		H		5.6679		2.2715		-1.9566		H		1		UNL1		0.1655
49		H		6.1637		0.5368		1.9524		H		1		UNL1		0.1757
50		H		-0.5566		-4.5282		-1.3729		H		1		UNL1		0.3556
@<TRIPOS>BOND
1		43		13		1
2		42		12		1
3		13		12		ar
4		13		14		ar
5		12		11		ar
6		47		21		1
7		48		22		1
8		50		30		1
9		19		18		2
10		44		14		1
11		32		31		2
12		14		15		ar
13		21		22		ar
14		21		20		ar
15		22		23		ar
16		11		41		1
17		11		10		ar
18		30		31		ar
19		30		28		ar
20		31		3		ar
21		29		28		2
22		28		16		ar
23		18		20		1
24		18		17		1
25		20		26		ar
26		3		2		1
27		3		4		ar
28		2		1		1
29		23		24		1
30		23		25		ar
31		15		10		ar
32		15		6		ar
33		10		9		ar
34		16		4		ar
35		16		17		1
36		4		5		1
37		34		1		1
38		33		1		1
39		17		46		1
40		17		45		1
41		37		5		1
42		1		35		1
43		26		25		ar
44		26		27		1
45		25		49		1
46		5		6		1
47		5		36		1
48		6		7		ar
49		9		40		1
50		9		8		ar
51		7		8		ar
52		7		38		1
53		8		39		1

