@<TRIPOS>MOLECULE
HYP2005-MC-1233-5-3
 55 58 0 0 0
SMALL
MULLIKEN_CHARGES
****
Gaussian 16 #p B3LYP/6-31G* opt
@<TRIPOS>ATOM
1		C		5.0961		0.2435		-0.6394		C.3		1		UNL1		-0.4473
2		C		4.0338		0.9617		-1.4911		C.3		1		UNL1		-0.3316
3		C		2.9308		1.5929		-0.6701		C.ar		1		UNL1		-0.0139
4		C		1.7238		1.0242		-0.3780		C.ar		1		UNL1		0.3403
5		C		1.3252		-0.3457		-0.8781		C.3		1		UNL1		-0.4555
6		C		1.4090		-1.4856		0.1350		C.ar		1		UNL1		0.1005
7		C		2.0054		-1.3197		1.3695		C.ar		1		UNL1		-0.1972
8		C		2.0977		-2.3841		2.2990		C.ar		1		UNL1		-0.1371
9		C		1.5905		-3.6210		1.9870		C.ar		1		UNL1		-0.1884
10		C		0.9720		-3.8484		0.7281		C.ar		1		UNL1		0.1369
11		C		0.4474		-5.1228		0.3852		C.ar		1		UNL1		-0.1937
12		C		-0.1438		-5.3429		-0.8379		C.ar		1		UNL1		-0.1315
13		C		-0.2340		-4.2887		-1.7753		C.ar		1		UNL1		-0.1329
14		C		0.2627		-3.0390		-1.4730		C.ar		1		UNL1		-0.1990
15		C		0.8772		-2.7726		-0.2178		C.ar		1		UNL1		0.0743
16		N		0.7828		1.6850		0.4245		N.ar		1		UNL1		-0.5329
17		C		-0.5490		1.1525		0.6912		C.3		1		UNL1		-0.2844
18		C		-1.5422		1.4538		-0.4438		C.2		1		UNL1		0.4197
19		O		-1.1399		1.9127		-1.5015		O.2		1		UNL1		-0.4666
20		C		-2.9817		1.1445		-0.2163		C.ar		1		UNL1		0.0825
21		C		-3.8901		1.4123		-1.2541		C.ar		1		UNL1		-0.1541
22		C		-5.2418		1.1376		-1.0979		C.ar		1		UNL1		-0.1805
23		C		-5.7354		0.5865		0.0962		C.ar		1		UNL1		0.1866
24		C		-7.2103		0.3168		0.2691		C.3		1		UNL1		-0.5326
25		C		-4.8255		0.3160		1.1263		C.ar		1		UNL1		-0.1854
26		C		-3.4681		0.5921		0.9781		C.ar		1		UNL1		-0.1783
27		C		0.9867		2.9827		0.9069		C.ar		1		UNL1		0.7919
28		O		0.1490		3.5923		1.5556		O.2		1		UNL1		-0.5244
29		N		2.2246		3.5081		0.6109		N.ar		1		UNL1		-0.7019
30		C		3.2448		2.9254		-0.1480		C.ar		1		UNL1		0.6056
31		O		4.2945		3.5304		-0.3279		O.2		1		UNL1		-0.5162
32		H		4.6615		-0.5903		-0.0771		H		1		UNL1		0.1451
33		H		5.8945		-0.1547		-1.2763		H		1		UNL1		0.1442
34		H		5.5487		0.9421		0.0714		H		1		UNL1		0.1668
35		H		4.5225		1.7675		-2.0477		H		1		UNL1		0.1749
36		H		3.6264		0.2679		-2.2331		H		1		UNL1		0.1391
37		H		0.3111		-0.2806		-1.2852		H		1		UNL1		0.1850
38		H		1.9573		-0.5936		-1.7348		H		1		UNL1		0.1888
39		H		2.4196		-0.3531		1.6396		H		1		UNL1		0.1426
40		H		2.5745		-2.2105		3.2596		H		1		UNL1		0.1370
41		H		1.6570		-4.4437		2.6947		H		1		UNL1		0.1334
42		H		0.5250		-5.9278		1.1123		H		1		UNL1		0.1337
43		H		-0.5396		-6.3237		-1.0868		H		1		UNL1		0.1343
44		H		-0.6978		-4.4655		-2.7419		H		1		UNL1		0.1348
45		H		0.1850		-2.2494		-2.2130		H		1		UNL1		0.1383
46		H		-0.4926		0.0754		0.8689		H		1		UNL1		0.1974
47		H		-0.8960		1.6252		1.6114		H		1		UNL1		0.2207
48		H		-3.5076		1.8372		-2.1765		H		1		UNL1		0.1658
49		H		-5.9310		1.3509		-1.9119		H		1		UNL1		0.1339
50		H		-7.3969		-0.3978		1.0768		H		1		UNL1		0.1618
51		H		-7.6545		-0.0818		-0.6496		H		1		UNL1		0.1656
52		H		-7.7516		1.2401		0.5149		H		1		UNL1		0.1755
53		H		-5.1850		-0.1149		2.0575		H		1		UNL1		0.1329
54		H		-2.7960		0.3702		1.8014		H		1		UNL1		0.1428
55		H		2.3980		4.4431		0.9618		H		1		UNL1		0.3525
@<TRIPOS>BOND
1		44		13		1
2		36		2		1
3		45		14		1
4		48		21		1
5		35		2		1
6		49		22		1
7		13		14		ar
8		13		12		ar
9		38		5		1
10		19		18		2
11		2		3		1
12		2		1		1
13		14		15		ar
14		37		5		1
15		33		1		1
16		21		22		ar
17		21		20		ar
18		22		23		ar
19		43		12		1
20		5		4		1
21		5		6		1
22		12		11		ar
23		3		4		ar
24		3		30		ar
25		51		24		1
26		1		32		1
27		1		34		1
28		18		20		1
29		18		17		1
30		4		16		ar
31		31		30		2
32		15		6		ar
33		15		10		ar
34		20		26		ar
35		30		29		ar
36		23		24		1
37		23		25		ar
38		6		7		ar
39		24		52		1
40		24		50		1
41		11		10		ar
42		11		42		1
43		16		17		1
44		16		27		ar
45		29		27		ar
46		29		55		1
47		17		46		1
48		17		47		1
49		10		9		ar
50		27		28		2
51		26		25		ar
52		26		54		1
53		25		53		1
54		7		39		1
55		7		8		ar
56		9		8		ar
57		9		41		1
58		8		40		1

