@<TRIPOS>MOLECULE
HYP2005-MC-1233-4-35
 50 53 0 0 0
SMALL
MULLIKEN_CHARGES
****
Gaussian 16 #p B3LYP/6-31G* opt
@<TRIPOS>ATOM
1		C		-4.4461		-0.4554		2.3101		C.3		1		UNL1		-0.2266
2		O		-3.6968		-0.8183		1.1384		O.3		1		UNL1		-0.5245
3		C		-3.1335		0.2165		0.4418		C.ar		1		UNL1		0.2011
4		C		-1.7878		0.2273		0.2158		C.ar		1		UNL1		0.3434
5		C		-0.8958		-0.8332		0.8091		C.3		1		UNL1		-0.4305
6		C		-0.4020		-1.9068		-0.1579		C.ar		1		UNL1		0.0959
7		C		-1.0321		-2.1247		-1.3672		C.ar		1		UNL1		-0.1903
8		C		-0.5988		-3.1339		-2.2596		C.ar		1		UNL1		-0.1351
9		C		0.4721		-3.9301		-1.9361		C.ar		1		UNL1		-0.1897
10		C		1.1492		-3.7573		-0.6992		C.ar		1		UNL1		0.1377
11		C		2.2514		-4.5795		-0.3435		C.ar		1		UNL1		-0.1941
12		C		2.8978		-4.4214		0.8609		C.ar		1		UNL1		-0.1320
13		C		2.4623		-3.4271		1.7666		C.ar		1		UNL1		-0.1332
14		C		1.3990		-2.6094		1.4506		C.ar		1		UNL1		-0.1997
15		C		0.7099		-2.7376		0.2120		C.ar		1		UNL1		0.0724
16		N		-1.2097		1.2058		-0.5977		N.ar		1		UNL1		-0.5438
17		C		0.2294		1.2972		-0.8084		C.3		1		UNL1		-0.2830
18		C		0.9418		2.0378		0.3355		C.2		1		UNL1		0.4212
19		O		0.3294		2.3275		1.3506		O.2		1		UNL1		-0.4637
20		C		2.3900		2.3600		0.1707		C.ar		1		UNL1		0.0832
21		C		3.1222		2.0093		-0.9747		C.ar		1		UNL1		-0.1792
22		C		4.4757		2.3305		-1.0689		C.ar		1		UNL1		-0.1333
23		C		5.1079		3.0062		-0.0236		C.ar		1		UNL1		-0.1162
24		C		4.3855		3.3606		1.1201		C.ar		1		UNL1		-0.1327
25		C		3.0362		3.0383		1.2173		C.ar		1		UNL1		-0.1540
26		C		-1.9463		2.2698		-1.1251		C.ar		1		UNL1		0.7917
27		O		-1.4436		3.1708		-1.7800		O.2		1		UNL1		-0.5226
28		N		-3.3013		2.2076		-0.8635		N.ar		1		UNL1		-0.7119
29		C		-4.0033		1.2466		-0.1260		C.ar		1		UNL1		0.6203
30		O		-5.2186		1.3189		-0.0030		O.2		1		UNL1		-0.5097
31		H		-4.7714		-1.3989		2.7533		H		1		UNL1		0.1607
32		H		-5.3111		0.1544		2.0431		H		1		UNL1		0.1932
33		H		-3.8100		0.0843		3.0239		H		1		UNL1		0.1409
34		H		-0.0484		-0.3340		1.2888		H		1		UNL1		0.1777
35		H		-1.4671		-1.3130		1.6094		H		1		UNL1		0.2027
36		H		-1.8863		-1.5137		-1.6432		H		1		UNL1		0.1404
37		H		-1.1224		-3.2712		-3.2016		H		1		UNL1		0.1362
38		H		0.8134		-4.7066		-2.6164		H		1		UNL1		0.1322
39		H		2.5739		-5.3452		-1.0454		H		1		UNL1		0.1328
40		H		3.7382		-5.0593		1.1201		H		1		UNL1		0.1332
41		H		2.9691		-3.3083		2.7205		H		1		UNL1		0.1335
42		H		1.0800		-1.8627		2.1701		H		1		UNL1		0.1370
43		H		0.6498		0.2953		-0.9304		H		1		UNL1		0.2014
44		H		0.3775		1.8415		-1.7428		H		1		UNL1		0.2207
45		H		2.6461		1.4865		-1.7983		H		1		UNL1		0.1454
46		H		5.0353		2.0552		-1.9583		H		1		UNL1		0.1423
47		H		6.1623		3.2578		-0.1001		H		1		UNL1		0.1427
48		H		4.8771		3.8880		1.9329		H		1		UNL1		0.1430
49		H		2.4554		3.3028		2.0948		H		1		UNL1		0.1673
50		H		-3.8540		2.9591		-1.2608		H		1		UNL1		0.3558
@<TRIPOS>BOND
1		37		8		1
2		38		9		1
3		8		9		ar
4		8		7		ar
5		46		22		1
6		9		10		ar
7		45		21		1
8		27		26		2
9		44		17		1
10		36		7		1
11		7		6		ar
12		50		28		1
13		26		28		ar
14		26		16		ar
15		22		21		ar
16		22		23		ar
17		39		11		1
18		21		20		ar
19		43		17		1
20		28		29		ar
21		17		16		1
22		17		18		1
23		10		11		ar
24		10		15		ar
25		16		4		ar
26		11		12		ar
27		6		15		ar
28		6		5		1
29		29		30		2
30		29		3		ar
31		47		23		1
32		23		24		ar
33		20		18		1
34		20		25		ar
35		15		14		ar
36		4		3		ar
37		4		5		1
38		18		19		2
39		3		2		1
40		5		34		1
41		5		35		1
42		12		40		1
43		12		13		ar
44		24		25		ar
45		24		48		1
46		2		1		1
47		25		49		1
48		14		13		ar
49		14		42		1
50		13		41		1
51		32		1		1
52		1		31		1
53		1		33		1

