@<TRIPOS>MOLECULE
HYP2005-MC-1233-4-7
 46 48 0 0 0
SMALL
MULLIKEN_CHARGES
****
Gaussian 16 #p B3LYP/6-31G* opt
@<TRIPOS>ATOM
1		C		-4.0072		3.4110		-0.3637		C.3		1		UNL1		-0.4623
2		C		-2.8936		2.5586		-0.9408		C.3		1		UNL1		-0.0358
3		O		-1.8011		2.5680		0.0123		O.3		1		UNL1		-0.4652
4		C		-0.7151		1.8560		-0.3348		C.2		1		UNL1		0.6639
5		O		-0.5847		1.2400		-1.3653		O.2		1		UNL1		-0.4678
6		C		0.3312		1.9510		0.7749		C.3		1		UNL1		-0.2685
7		N		1.5398		1.2040		0.4535		N.ar		1		UNL1		-0.5482
8		C		1.7832		-0.1096		0.8668		C.ar		1		UNL1		0.3716
9		C		0.7717		-0.7753		1.7912		C.3		1		UNL1		-0.4587
10		C		-0.6803		-0.9814		1.3556		C.ar		1		UNL1		0.1145
11		C		-1.6798		-0.5012		2.1820		C.ar		1		UNL1		-0.2151
12		C		-3.0502		-0.7230		1.9142		C.ar		1		UNL1		-0.1297
13		C		-3.4219		-1.4470		0.8079		C.ar		1		UNL1		-0.1953
14		C		-2.4389		-1.9771		-0.0697		C.ar		1		UNL1		0.1443
15		C		-2.8131		-2.7446		-1.2049		C.ar		1		UNL1		-0.1953
16		C		-1.8646		-3.2701		-2.0510		C.ar		1		UNL1		-0.1282
17		C		-0.4932		-3.0419		-1.7958		C.ar		1		UNL1		-0.1390
18		C		-0.0970		-2.2998		-0.7052		C.ar		1		UNL1		-0.1809
19		C		-1.0457		-1.7454		0.1965		C.ar		1		UNL1		0.0924
20		C		2.9473		-0.7480		0.5370		C.ar		1		UNL1		-0.0110
21		C		3.3338		-2.1328		1.0040		C.3		1		UNL1		-0.5520
22		C		3.9288		-0.0768		-0.3202		C.ar		1		UNL1		0.6014
23		O		4.9952		-0.5489		-0.6934		O.2		1		UNL1		-0.5152
24		N		3.5607		1.2118		-0.7172		N.ar		1		UNL1		-0.7030
25		C		2.4209		1.9060		-0.3813		C.ar		1		UNL1		0.7966
26		O		2.2030		3.0465		-0.7581		O.2		1		UNL1		-0.5194
27		H		-3.6699		4.4398		-0.2022		H		1		UNL1		0.1645
28		H		-4.8552		3.4313		-1.0569		H		1		UNL1		0.1542
29		H		-4.3533		3.0060		0.5927		H		1		UNL1		0.1596
30		H		-3.2056		1.5216		-1.0977		H		1		UNL1		0.1668
31		H		-2.5266		2.9479		-1.8953		H		1		UNL1		0.1667
32		H		-0.0998		1.6052		1.7114		H		1		UNL1		0.1891
33		H		0.6047		3.0011		0.8930		H		1		UNL1		0.2235
34		H		0.7563		-0.2061		2.7306		H		1		UNL1		0.1718
35		H		1.1878		-1.7504		2.0542		H		1		UNL1		0.1905
36		H		-1.4089		0.0585		3.0751		H		1		UNL1		0.1247
37		H		-3.7993		-0.3240		2.5924		H		1		UNL1		0.1336
38		H		-4.4713		-1.6334		0.5926		H		1		UNL1		0.1332
39		H		-3.8716		-2.9109		-1.3913		H		1		UNL1		0.1310
40		H		-2.1648		-3.8561		-2.9153		H		1		UNL1		0.1343
41		H		0.2553		-3.4495		-2.4695		H		1		UNL1		0.1372
42		H		0.9579		-2.1178		-0.5463		H		1		UNL1		0.1462
43		H		3.4510		-2.1856		2.0934		H		1		UNL1		0.1600
44		H		4.2942		-2.3884		0.5523		H		1		UNL1		0.2033
45		H		2.6086		-2.9014		0.7115		H		1		UNL1		0.1612
46		H		4.2105		1.7038		-1.3197		H		1		UNL1		0.3543
@<TRIPOS>BOND
1		40		16		1
2		41		17		1
3		16		17		ar
4		16		15		ar
5		31		2		1
6		17		18		ar
7		39		15		1
8		5		4		2
9		46		24		1
10		15		14		ar
11		30		2		1
12		28		1		1
13		2		1		1
14		2		3		1
15		26		25		2
16		24		25		ar
17		24		22		ar
18		18		42		1
19		18		19		ar
20		23		22		2
21		25		7		ar
22		1		27		1
23		1		29		1
24		4		3		1
25		4		6		1
26		22		20		ar
27		14		19		ar
28		14		13		ar
29		19		10		ar
30		7		6		1
31		7		8		ar
32		20		8		ar
33		20		21		1
34		44		21		1
35		38		13		1
36		45		21		1
37		6		33		1
38		6		32		1
39		13		12		ar
40		8		9		1
41		21		43		1
42		10		9		1
43		10		11		ar
44		9		35		1
45		9		34		1
46		12		11		ar
47		12		37		1
48		11		36		1

