@<TRIPOS>MOLECULE
HYP2005-MC-1233-4-42
 57 60 0 0 0
SMALL
MULLIKEN_CHARGES
****
Gaussian 16 #p B3LYP/6-31G* opt
@<TRIPOS>ATOM
1		C		-6.4848		-0.6049		-0.2571		C.3		1		UNL1		-0.4580
2		C		-5.5701		0.4760		0.2874		C.3		1		UNL1		-0.0402
3		O		-4.2864		0.3159		-0.3600		O.3		1		UNL1		-0.5347
4		C		-3.3109		1.2124		-0.0208		C.ar		1		UNL1		0.2105
5		C		-2.1187		0.7621		0.4703		C.ar		1		UNL1		0.3363
6		C		-1.9331		-0.7015		0.7902		C.3		1		UNL1		-0.4340
7		C		-1.1242		-1.5343		-0.1996		C.ar		1		UNL1		0.1031
8		C		-0.8343		-1.0653		-1.4639		C.ar		1		UNL1		-0.1908
9		C		-0.1093		-1.8485		-2.3942		C.ar		1		UNL1		-0.1360
10		C		0.3203		-3.1074		-2.0554		C.ar		1		UNL1		-0.1883
11		C		0.0369		-3.6426		-0.7700		C.ar		1		UNL1		0.1367
12		C		0.4655		-4.9461		-0.4041		C.ar		1		UNL1		-0.1936
13		C		0.1788		-5.4688		0.8364		C.ar		1		UNL1		-0.1330
14		C		-0.5577		-4.7020		1.7678		C.ar		1		UNL1		-0.1336
15		C		-0.9850		-3.4316		1.4456		C.ar		1		UNL1		-0.2020
16		C		-0.7011		-2.8542		0.1764		C.ar		1		UNL1		0.0762
17		N		-1.0808		1.6574		0.7477		N.ar		1		UNL1		-0.5485
18		C		0.2859		1.2489		1.0521		C.3		1		UNL1		-0.2649
19		C		1.2226		1.4391		-0.1610		C.2		1		UNL1		0.4362
20		O		0.7615		1.7508		-1.2468		O.2		1		UNL1		-0.4760
21		C		2.6752		1.2132		0.0454		C.ar		1		UNL1		0.0860
22		C		3.5355		1.3952		-1.0472		C.ar		1		UNL1		-0.1628
23		C		4.9067		1.1983		-0.9320		C.ar		1		UNL1		-0.1969
24		C		5.4467		0.8055		0.3029		C.ar		1		UNL1		0.3902
25		O		6.7659		0.5842		0.5326		O.3		1		UNL1		-0.4997
26		C		7.6842		0.7633		-0.5387		C.3		1		UNL1		-0.2213
27		C		4.5982		0.6168		1.4066		C.ar		1		UNL1		-0.1775
28		C		3.2336		0.8200		1.2767		C.ar		1		UNL1		-0.1833
29		C		-1.2289		3.0397		0.6053		C.ar		1		UNL1		0.8011
30		O		-0.3429		3.8308		0.8877		O.2		1		UNL1		-0.5242
31		N		-2.4665		3.4386		0.1370		N.ar		1		UNL1		-0.7148
32		C		-3.5405		2.6378		-0.2640		C.ar		1		UNL1		0.6202
33		O		-4.5526		3.1382		-0.7366		O.2		1		UNL1		-0.5115
34		H		-7.4737		-0.5277		0.2082		H		1		UNL1		0.1477
35		H		-6.6021		-0.4956		-1.3397		H		1		UNL1		0.1683
36		H		-6.0819		-1.6026		-0.0529		H		1		UNL1		0.1536
37		H		-5.9583		1.4744		0.0740		H		1		UNL1		0.1834
38		H		-5.4353		0.3728		1.3741		H		1		UNL1		0.1220
39		H		-1.4923		-0.7779		1.7921		H		1		UNL1		0.1616
40		H		-2.9377		-1.1292		0.8645		H		1		UNL1		0.2007
41		H		-1.1481		-0.0687		-1.7544		H		1		UNL1		0.1603
42		H		0.1055		-1.4379		-3.3765		H		1		UNL1		0.1382
43		H		0.8798		-3.7140		-2.7635		H		1		UNL1		0.1293
44		H		1.0263		-5.5294		-1.1309		H		1		UNL1		0.1313
45		H		0.5122		-6.4685		1.1010		H		1		UNL1		0.1311
46		H		-0.7910		-5.1187		2.7440		H		1		UNL1		0.1298
47		H		-1.5596		-2.8713		2.1760		H		1		UNL1		0.1279
48		H		0.3018		0.2014		1.3534		H		1		UNL1		0.1923
49		H		0.6474		1.8544		1.8865		H		1		UNL1		0.2050
50		H		3.1021		1.6987		-1.9946		H		1		UNL1		0.1682
51		H		5.5432		1.3507		-1.7959		H		1		UNL1		0.1416
52		H		8.6685		0.5364		-0.1262		H		1		UNL1		0.1768
53		H		7.6731		1.7966		-0.9073		H		1		UNL1		0.1606
54		H		7.4705		0.0782		-1.3686		H		1		UNL1		0.1592
55		H		5.0375		0.3136		2.3514		H		1		UNL1		0.1468
56		H		2.6038		0.6694		2.1481		H		1		UNL1		0.1382
57		H		-2.5742		4.4370		-0.0033		H		1		UNL1		0.3552
@<TRIPOS>BOND
1		42		9		1
2		43		10		1
3		9		10		ar
4		9		8		ar
5		10		11		ar
6		50		22		1
7		51		23		1
8		41		8		1
9		8		7		ar
10		54		26		1
11		35		1		1
12		20		19		2
13		44		12		1
14		22		23		ar
15		22		21		ar
16		23		24		ar
17		53		26		1
18		11		12		ar
19		11		16		ar
20		33		32		2
21		26		52		1
22		26		25		1
23		12		13		ar
24		3		4		1
25		3		2		1
26		32		4		ar
27		32		31		ar
28		1		36		1
29		1		34		1
30		1		2		1
31		7		16		ar
32		7		6		1
33		19		21		1
34		19		18		1
35		4		5		ar
36		57		31		1
37		21		28		ar
38		37		2		1
39		31		29		ar
40		16		15		ar
41		2		38		1
42		24		25		1
43		24		27		ar
44		5		17		ar
45		5		6		1
46		29		17		ar
47		29		30		2
48		17		18		1
49		6		40		1
50		6		39		1
51		13		45		1
52		13		14		ar
53		18		48		1
54		18		49		1
55		28		27		ar
56		28		56		1
57		27		55		1
58		15		14		ar
59		15		47		1
60		14		46		1

