@<TRIPOS>MOLECULE
JKJ-2018-EJMC-726-3-4i
 51 54 0 0 0
SMALL
MULLIKEN_CHARGES

@<TRIPOS>ATOM
1		C		-2.1443		-1.7311		-0.8484		C.ar		1		UNL1		-0.2596
2		C		-0.9399		-2.4353		-0.8361		C.ar		1		UNL1		0.1843
3		C		-0.0662		-2.2716		0.2560		C.ar		1		UNL1		0.1737
4		C		-0.4011		-1.4297		1.3327		C.ar		1		UNL1		0.2017
5		C		-1.6079		-0.7277		1.2697		C.ar		1		UNL1		-0.2744
6		C		-2.4942		-0.8568		0.1910		C.ar		1		UNL1		0.1390
7		C		-0.5811		-3.3498		-1.9841		C.3		1		UNL1		-0.5397
8		C		0.4922		-1.2948		2.5401		C.3		1		UNL1		-0.5352
9		N		1.1421		-3.0340		0.2867		N.pl3		1		UNL1		-0.7633
10		C		2.4142		-2.5396		0.1448		C.ar		1		UNL1		0.5736
11		C		3.5220		-3.4145		0.1061		C.ar		1		UNL1		-0.2261
12		C		4.7643		-2.8200		-0.0319		C.ar		1		UNL1		0.0667
13		N		4.9512		-1.4975		-0.1276		N.ar		1		UNL1		-0.5070
14		C		3.8238		-0.7638		-0.0794		C.ar		1		UNL1		0.6894
15		N		2.5696		-1.2099		0.0517		N.ar		1		UNL1		-0.5682
16		N		4.0583		0.5949		-0.1804		N.pl3		1		UNL1		-0.7691
17		C		3.2118		1.7003		-0.2118		C.ar		1		UNL1		0.3817
18		C		3.8270		2.9698		-0.2449		C.ar		1		UNL1		-0.2042
19		C		3.0710		4.1291		-0.2846		C.ar		1		UNL1		-0.1413
20		C		1.6663		4.0576		-0.2933		C.ar		1		UNL1		0.1305
21		C		1.0531		2.7940		-0.2648		C.ar		1		UNL1		-0.1607
22		C		1.8054		1.6272		-0.2244		C.ar		1		UNL1		-0.1678
23		C		0.8764		5.2496		-0.3292		C.1		1		UNL1		0.2246
24		N		0.2317		6.2189		-0.3561		N.1		1		UNL1		-0.4885
25		C		-3.7493		-0.0636		0.1602		C.ar		1		UNL1		0.0095
26		C		-3.7785		1.2676		0.6142		C.ar		1		UNL1		-0.1820
27		C		-4.9479		2.0254		0.6040		C.ar		1		UNL1		-0.1318
28		C		-6.1371		1.4656		0.1339		C.ar		1		UNL1		-0.1288
29		C		-6.1461		0.1484		-0.3239		C.ar		1		UNL1		-0.1947
30		C		-4.9661		-0.5833		-0.3037		C.ar		1		UNL1		0.3249
31		F		-5.0178		-1.8636		-0.7444		F		1		UNL1		-0.2955
32		H		-2.8118		-1.8529		-1.6940		H		1		UNL1		0.1373
33		H		-1.8809		-0.0920		2.1076		H		1		UNL1		0.1321
34		H		-0.5686		-4.4071		-1.6831		H		1		UNL1		0.1507
35		H		0.4112		-3.1190		-2.3885		H		1		UNL1		0.1718
36		H		-1.3089		-3.2567		-2.7949		H		1		UNL1		0.1675
37		H		-0.0481		-0.8355		3.3731		H		1		UNL1		0.1541
38		H		1.3672		-0.6745		2.3155		H		1		UNL1		0.1843
39		H		0.8668		-2.2708		2.8677		H		1		UNL1		0.1588
40		H		1.0508		-4.0299		0.1353		H		1		UNL1		0.3320
41		H		3.4081		-4.4902		0.1875		H		1		UNL1		0.1330
42		H		5.6651		-3.4306		-0.0678		H		1		UNL1		0.1484
43		H		5.0496		0.7889		-0.2458		H		1		UNL1		0.3462
44		H		4.9123		3.0385		-0.2363		H		1		UNL1		0.1361
45		H		3.5614		5.0970		-0.3079		H		1		UNL1		0.1557
46		H		-0.0303		2.7266		-0.2781		H		1		UNL1		0.1567
47		H		1.3208		0.6622		-0.2049		H		1		UNL1		0.2007
48		H		-2.8524		1.7173		0.9605		H		1		UNL1		0.1439
49		H		-4.9266		3.0535		0.9530		H		1		UNL1		0.1410
50		H		-7.0533		2.0487		0.1182		H		1		UNL1		0.1407
51		H		-7.0501		-0.3265		-0.6912		H		1		UNL1		0.1470
@<TRIPOS>BOND
1		36		7		1
2		35		7		1
3		7		34		1
4		7		2		1
5		32		1		1
6		1		2		ar
7		1		6		ar
8		2		3		ar
9		31		30		1
10		51		29		1
11		24		23		3
12		23		20		1
13		29		30		ar
14		29		28		ar
15		45		19		1
16		30		25		ar
17		20		19		ar
18		20		21		ar
19		19		18		ar
20		46		21		1
21		21		22		ar
22		43		16		1
23		18		44		1
24		18		17		ar
25		22		17		ar
26		22		47		1
27		17		16		1
28		16		14		1
29		13		14		ar
30		13		12		ar
31		14		15		ar
32		42		12		1
33		12		11		ar
34		15		10		ar
35		11		10		ar
36		11		41		1
37		50		28		1
38		28		27		ar
39		40		9		1
40		10		9		1
41		25		6		1
42		25		26		ar
43		6		5		ar
44		3		9		1
45		3		4		ar
46		27		26		ar
47		27		49		1
48		26		48		1
49		5		4		ar
50		5		33		1
51		4		8		1
52		38		8		1
53		8		39		1
54		8		37		1

