@<TRIPOS>MOLECULE
JKJ-2019-EJMC-11-4s
 45 48 0 0 0
SMALL
MULLIKEN_CHARGES
****
Gaussian 16 #p B3LYP/6-31G* opt
@<TRIPOS>ATOM
1		C		4.7838		-1.2879		-2.4093		C.3		1		UNL1		-0.5434
2		C		4.7529		-0.5431		-1.0968		C.ar		1		UNL1		0.1561
3		C		5.8463		0.2193		-0.6761		C.ar		1		UNL1		-0.1985
4		C		5.8295		0.9275		0.5262		C.ar		1		UNL1		-0.1201
5		C		4.7033		0.8598		1.3445		C.ar		1		UNL1		-0.1472
6		C		3.6065		0.0874		0.9643		C.ar		1		UNL1		-0.1818
7		C		3.6160		-0.5995		-0.2600		C.ar		1		UNL1		0.2534
8		N		2.5210		-1.3915		-0.6746		N.pl3		1		UNL1		-0.7531
9		C		1.1743		-1.2203		-0.4405		C.cat		1		UNL1		0.7574
10		N		0.3962		-2.2489		-0.5976		N.2		1		UNL1		-0.6265
11		C		-0.9697		-2.0181		-0.4870		C.ar		1		UNL1		0.2876
12		C		-1.8530		-3.0471		-0.8626		C.ar		1		UNL1		-0.1748
13		C		-3.2301		-2.8866		-0.7796		C.ar		1		UNL1		-0.1275
14		C		-3.7497		-1.6761		-0.3165		C.ar		1		UNL1		-0.0814
15		CL		-5.4949		-1.4596		-0.2080		Cl		1		UNL1		-0.0373
16		C		-2.9069		-0.6369		0.0641		C.ar		1		UNL1		-0.1804
17		C		-1.5252		-0.8063		-0.0202		C.ar		1		UNL1		0.0954
18		C		-0.5711		0.3006		0.4380		C.3		1		UNL1		-0.1115
19		C		-1.0320		1.6437		0.0614		C.1		1		UNL1		0.0931
20		C		-1.4007		2.7547		-0.2463		C.1		1		UNL1		0.0338
21		C		-1.8443		4.0710		-0.6169		C.3		1		UNL1		-0.2838
22		C		-3.1579		4.2501		-1.3690		C.3		1		UNL1		-0.2972
23		C		-1.8627		4.4864		-2.0835		C.3		1		UNL1		-0.2977
24		C		-0.4164		0.2587		1.9931		C.3		1		UNL1		0.8716
25		F		0.5012		1.1687		2.4017		F		1		UNL1		-0.2729
26		F		-1.5712		0.5249		2.6224		F		1		UNL1		-0.2497
27		F		0.0170		-0.9496		2.3994		F		1		UNL1		-0.2610
28		N		0.7406		0.0506		-0.1574		N.pl3		1		UNL1		-0.6598
29		H		3.8996		-1.0651		-3.0183		H		1		UNL1		0.1730
30		H		4.8081		-2.3782		-2.2671		H		1		UNL1		0.1597
31		H		5.6731		-1.0207		-2.9871		H		1		UNL1		0.1634
32		H		6.7246		0.2663		-1.3157		H		1		UNL1		0.1283
33		H		6.6901		1.5211		0.8208		H		1		UNL1		0.1322
34		H		4.6787		1.3893		2.2928		H		1		UNL1		0.1384
35		H		2.7528		-0.0000		1.6275		H		1		UNL1		0.1562
36		H		2.7149		-2.2932		-1.0912		H		1		UNL1		0.3478
37		H		-1.4235		-3.9757		-1.2248		H		1		UNL1		0.1417
38		H		-3.8994		-3.6885		-1.0736		H		1		UNL1		0.1509
39		H		-3.3210		0.2986		0.4231		H		1		UNL1		0.1626
40		H		-1.5947		4.8541		0.0961		H		1		UNL1		0.1784
41		H		-3.7670		5.1061		-1.0936		H		1		UNL1		0.1652
42		H		-3.7181		3.3512		-1.6058		H		1		UNL1		0.1772
43		H		-1.5677		5.5073		-2.3077		H		1		UNL1		0.1639
44		H		-1.5359		3.7489		-2.8097		H		1		UNL1		0.1734
45		H		1.4141		0.8017		-0.0987		H		1		UNL1		0.3450
@<TRIPOS>BOND
1		29		1		1
2		31		1		1
3		44		23		1
4		1		30		1
5		1		2		1
6		43		23		1
7		23		22		1
8		23		21		1
9		42		22		1
10		22		41		1
11		22		21		1
12		32		3		1
13		37		12		1
14		2		3		ar
15		2		7		ar
16		36		8		1
17		38		13		1
18		12		13		ar
19		12		11		ar
20		13		14		ar
21		3		4		ar
22		8		9		1
23		8		7		1
24		21		20		1
25		21		40		1
26		10		11		1
27		10		9		2
28		11		17		ar
29		9		28		1
30		14		15		1
31		14		16		ar
32		7		6		ar
33		20		19		3
34		28		45		1
35		28		18		1
36		17		16		ar
37		17		18		1
38		19		18		1
39		16		39		1
40		18		24		1
41		4		33		1
42		4		5		ar
43		6		5		ar
44		6		35		1
45		5		34		1
46		24		27		1
47		24		25		1
48		24		26		1

