@<TRIPOS>MOLECULE
JKJ-2019-EJMC-11-4q
 45 48 0 0 0
SMALL
MULLIKEN_CHARGES
****
Gaussian 16 #p B3LYP/6-31G* opt
@<TRIPOS>ATOM
1		C		7.9702		0.1747		-0.5022		C.3		1		UNL1		-0.5305
2		C		6.4950		-0.1375		-0.4090		C.ar		1		UNL1		0.1844
3		C		5.5326		0.8780		-0.4002		C.ar		1		UNL1		-0.2000
4		C		4.1678		0.6152		-0.2826		C.ar		1		UNL1		-0.1467
5		C		3.7294		-0.7116		-0.1766		C.ar		1		UNL1		0.3573
6		N		2.3767		-1.0994		-0.0620		N.pl3		1		UNL1		-0.7894
7		C		1.2246		-0.3488		-0.0719		C.cat		1		UNL1		0.8165
8		N		1.2347		0.9467		-0.0563		N.2		1		UNL1		-0.6313
9		C		0.0021		1.5891		-0.1285		C.ar		1		UNL1		0.2978
10		C		-0.0110		2.9809		-0.3312		C.ar		1		UNL1		-0.1742
11		C		-1.2027		3.6899		-0.4130		C.ar		1		UNL1		-0.1285
12		C		-2.4138		3.0055		-0.2945		C.ar		1		UNL1		-0.0797
13		CL		-3.9315		3.8929		-0.3972		Cl		1		UNL1		-0.0343
14		C		-2.4386		1.6292		-0.0936		C.ar		1		UNL1		-0.1805
15		C		-1.2374		0.9258		-0.0109		C.ar		1		UNL1		0.1015
16		C		-1.2281		-0.5793		0.2629		C.3		1		UNL1		-0.1175
17		C		-2.2980		-1.2990		-0.4420		C.1		1		UNL1		0.0998
18		C		-3.1765		-1.9071		-1.0108		C.1		1		UNL1		0.0302
19		C		-4.2217		-2.6186		-1.6950		C.3		1		UNL1		-0.2828
20		C		-5.5145		-2.9617		-0.9645		C.3		1		UNL1		-0.2970
21		C		-4.5513		-4.0560		-1.3095		C.3		1		UNL1		-0.2989
22		C		-1.3982		-0.8444		1.7938		C.3		1		UNL1		0.8548
23		F		-2.5980		-0.4403		2.2422		F		1		UNL1		-0.2512
24		F		-0.4483		-0.2079		2.5012		F		1		UNL1		-0.2546
25		F		-1.2792		-2.1678		2.0564		F		1		UNL1		-0.2728
26		N		0.0684		-1.1087		-0.1589		N.pl3		1		UNL1		-0.6774
27		C		4.6816		-1.7435		-0.1876		C.ar		1		UNL1		-0.2008
28		C		6.0373		-1.4572		-0.3017		C.ar		1		UNL1		-0.1843
29		H		8.4313		0.2426		0.4926		H		1		UNL1		0.1641
30		H		8.1453		1.1313		-1.0060		H		1		UNL1		0.1566
31		H		8.5113		-0.6008		-1.0560		H		1		UNL1		0.1546
32		H		5.8533		1.9142		-0.4851		H		1		UNL1		0.1245
33		H		3.4418		1.4152		-0.2695		H		1		UNL1		0.1834
34		H		2.2476		-2.0952		0.0467		H		1		UNL1		0.3252
35		H		0.9426		3.4905		-0.4260		H		1		UNL1		0.1440
36		H		-1.1980		4.7633		-0.5707		H		1		UNL1		0.1522
37		H		-3.3841		1.1063		-0.0054		H		1		UNL1		0.1631
38		H		-4.3234		-2.3735		-2.7502		H		1		UNL1		0.1813
39		H		-6.4358		-2.8771		-1.5332		H		1		UNL1		0.1666
40		H		-5.5915		-2.6540		0.0735		H		1		UNL1		0.1754
41		H		-4.8008		-4.7363		-2.1186		H		1		UNL1		0.1647
42		H		-3.9700		-4.4986		-0.5068		H		1		UNL1		0.1698
43		H		0.1336		-2.1175		-0.1547		H		1		UNL1		0.3269
44		H		4.3566		-2.7804		-0.1132		H		1		UNL1		0.1156
45		H		6.7513		-2.2778		-0.3105		H		1		UNL1		0.1221
@<TRIPOS>BOND
1		38		19		1
2		41		21		1
3		19		21		1
4		19		18		1
5		19		20		1
6		39		20		1
7		21		20		1
8		21		42		1
9		31		1		1
10		18		17		3
11		30		1		1
12		20		40		1
13		36		11		1
14		1		2		1
15		1		29		1
16		32		3		1
17		17		16		1
18		35		10		1
19		11		10		ar
20		11		12		ar
21		2		3		ar
22		2		28		ar
23		3		4		ar
24		13		12		1
25		10		9		ar
26		45		28		1
27		28		27		ar
28		12		14		ar
29		4		33		1
30		4		5		ar
31		27		5		ar
32		27		44		1
33		5		6		1
34		26		43		1
35		26		7		1
36		26		16		1
37		9		8		1
38		9		15		ar
39		14		15		ar
40		14		37		1
41		7		6		1
42		7		8		2
43		6		34		1
44		15		16		1
45		16		22		1
46		22		25		1
47		22		23		1
48		22		24		1

