@<TRIPOS>MOLECULE
JKJ-2019-EJMC-11-4b
 43 46 0 0 0
SMALL
MULLIKEN_CHARGES
****
Gaussian 16 #p B3LYP/6-31G* opt
@<TRIPOS>ATOM
1		N		8.7936		0.3260		-0.7840		N.1		1		UNL1		-0.4827
2		C		7.6644		0.0977		-0.6168		C.1		1		UNL1		0.2286
3		C		6.2767		-0.1865		-0.4126		C.ar		1		UNL1		0.1324
4		C		5.8591		-1.4836		-0.0677		C.ar		1		UNL1		-0.1400
5		C		4.5137		-1.7519		0.1262		C.ar		1		UNL1		-0.2082
6		C		3.5468		-0.7380		-0.0148		C.ar		1		UNL1		0.3839
7		N		2.2103		-1.1102		0.1777		N.pl3		1		UNL1		-0.7918
8		C		1.0536		-0.3487		0.1491		C.cat		1		UNL1		0.8072
9		N		1.0687		0.9427		0.1492		N.2		1		UNL1		-0.6135
10		C		-0.1594		1.5894		0.0008		C.ar		1		UNL1		0.2861
11		C		-0.1517		2.9759		-0.2284		C.ar		1		UNL1		-0.1724
12		C		-1.3328		3.6857		-0.4038		C.ar		1		UNL1		-0.1282
13		C		-2.5506		3.0046		-0.3550		C.ar		1		UNL1		-0.0784
14		CL		-4.0541		3.8908		-0.5757		Cl		1		UNL1		-0.0255
15		C		-2.5933		1.6327		-0.1272		C.ar		1		UNL1		-0.1796
16		C		-1.4031		0.9288		0.0560		C.ar		1		UNL1		0.0994
17		C		-1.4220		-0.5721		0.3621		C.3		1		UNL1		-0.0851
18		C		-2.4062		-1.3024		-0.4454		C.1		1		UNL1		0.0629
19		C		-3.2132		-1.9193		-1.1043		C.1		1		UNL1		0.0513
20		C		-4.1742		-2.6409		-1.8925		C.3		1		UNL1		-0.2856
21		C		-5.5095		-3.0472		-1.2793		C.3		1		UNL1		-0.2964
22		C		-4.4862		-4.0994		-1.5757		C.3		1		UNL1		-0.2989
23		C		-1.7541		-0.8034		1.8715		C.3		1		UNL1		0.8656
24		F		-1.6971		-2.1173		2.1744		F		1		UNL1		-0.2676
25		F		-2.9838		-0.3588		2.1824		F		1		UNL1		-0.2521
26		F		-0.8654		-0.1652		2.6534		F		1		UNL1		-0.2566
27		N		-0.0875		-1.1232		0.1189		N.pl3		1		UNL1		-0.7039
28		C		3.9610		0.5621		-0.3528		C.ar		1		UNL1		-0.1541
29		C		5.3110		0.8242		-0.5506		C.ar		1		UNL1		-0.1541
30		H		6.5933		-2.2747		0.0446		H		1		UNL1		0.1592
31		H		4.2027		-2.7612		0.3877		H		1		UNL1		0.1329
32		H		2.0804		-2.0643		0.4858		H		1		UNL1		0.3349
33		H		0.8079		3.4813		-0.2694		H		1		UNL1		0.1473
34		H		-1.3145		4.7557		-0.5813		H		1		UNL1		0.1569
35		H		-3.5452		1.1155		-0.0895		H		1		UNL1		0.1663
36		H		-4.1986		-2.3657		-2.9448		H		1		UNL1		0.1831
37		H		-5.6802		-2.7745		-0.2428		H		1		UNL1		0.1771
38		H		-6.3837		-2.9721		-1.9192		H		1		UNL1		0.1692
39		H		-4.6459		-4.7610		-2.4221		H		1		UNL1		0.1672
40		H		-3.9573		-4.5487		-0.7410		H		1		UNL1		0.1710
41		H		-0.0485		-2.0698		-0.2303		H		1		UNL1		0.3381
42		H		3.2230		1.3465		-0.4362		H		1		UNL1		0.1934
43		H		5.6261		1.8296		-0.8111		H		1		UNL1		0.1606
@<TRIPOS>BOND
1		36		20		1
2		39		22		1
3		38		21		1
4		20		22		1
5		20		21		1
6		20		19		1
7		22		21		1
8		22		40		1
9		21		37		1
10		19		18		3
11		43		29		1
12		1		2		3
13		2		3		1
14		34		12		1
15		14		13		1
16		29		3		ar
17		29		28		ar
18		18		17		1
19		42		28		1
20		3		4		ar
21		12		13		ar
22		12		11		ar
23		13		15		ar
24		28		6		ar
25		33		11		1
26		41		27		1
27		11		10		ar
28		15		35		1
29		15		16		ar
30		4		30		1
31		4		5		ar
32		6		5		ar
33		6		7		1
34		10		16		ar
35		10		9		1
36		16		17		1
37		27		8		1
38		27		17		1
39		5		31		1
40		8		9		2
41		8		7		1
42		7		32		1
43		17		23		1
44		23		24		1
45		23		25		1
46		23		26		1

