@<TRIPOS>MOLECULE
JKJ-2018-EJMC-726-3-4l
 54 57 0 0 0
SMALL
MULLIKEN_CHARGES

@<TRIPOS>ATOM
1		C		1.6405		-0.9440		1.0555		C.ar		1		UNL1		-0.2632
2		C		0.4043		-1.5920		1.1422		C.ar		1		UNL1		0.2002
3		C		-0.0476		-2.3151		0.0226		C.ar		1		UNL1		0.1673
4		C		0.7326		-2.4111		-1.1447		C.ar		1		UNL1		0.1921
5		C		1.9670		-1.7583		-1.1810		C.ar		1		UNL1		-0.2644
6		C		2.4400		-1.0127		-0.0927		C.ar		1		UNL1		0.0989
7		C		-0.4099		-1.5086		2.4091		C.3		1		UNL1		-0.5333
8		C		0.2492		-3.2017		-2.3381		C.3		1		UNL1		-0.5390
9		N		-1.2943		-3.0156		0.0763		N.pl3		1		UNL1		-0.7619
10		C		-2.5383		-2.4399		0.0202		C.ar		1		UNL1		0.5738
11		C		-3.7002		-3.2413		-0.0259		C.ar		1		UNL1		-0.2264
12		C		-4.9065		-2.5639		-0.0722		C.ar		1		UNL1		0.0666
13		N		-5.0126		-1.2291		-0.0748		N.ar		1		UNL1		-0.5074
14		C		-3.8396		-0.5701		-0.0281		C.ar		1		UNL1		0.6892
15		N		-2.6126		-1.1002		0.0192		N.ar		1		UNL1		-0.5686
16		N		-3.9902		0.8037		-0.0327		N.pl3		1		UNL1		-0.7690
17		C		-3.0766		1.8554		-0.0219		C.ar		1		UNL1		0.3813
18		C		-3.6125		3.1597		0.0285		C.ar		1		UNL1		-0.2046
19		C		-2.7867		4.2709		0.0364		C.ar		1		UNL1		-0.1414
20		C		-1.3895		4.1144		-0.0053		C.ar		1		UNL1		0.1297
21		C		-0.8547		2.8164		-0.0571		C.ar		1		UNL1		-0.1612
22		C		-1.6779		1.6974		-0.0666		C.ar		1		UNL1		-0.1685
23		C		-0.5307		5.2585		0.0033		C.1		1		UNL1		0.2262
24		N		0.1664		6.1912		0.0098		N.1		1		UNL1		-0.4882
25		C		3.7403		-0.2868		-0.1881		C.ar		1		UNL1		0.0108
26		C		3.9213		0.6146		-1.2502		C.ar		1		UNL1		-0.1658
27		C		5.1046		1.3335		-1.4025		C.ar		1		UNL1		-0.1355
28		C		6.1393		1.1501		-0.4862		C.ar		1		UNL1		-0.1193
29		C		5.9768		0.2466		0.5627		C.ar		1		UNL1		-0.1907
30		C		4.7921		-0.4815		0.7367		C.ar		1		UNL1		0.1493
31		C		4.6979		-1.4640		1.8845		C.3		1		UNL1		-0.5321
32		H		1.9837		-0.3637		1.9076		H		1		UNL1		0.1321
33		H		2.5783		-1.8329		-2.0766		H		1		UNL1		0.1309
34		H		-0.8113		-2.4889		2.6888		H		1		UNL1		0.1578
35		H		-1.2656		-0.8356		2.2835		H		1		UNL1		0.1844
36		H		0.1987		-1.1355		3.2381		H		1		UNL1		0.1533
37		H		0.9222		-3.0688		-3.1898		H		1		UNL1		0.1654
38		H		0.2018		-4.2800		-2.1293		H		1		UNL1		0.1500
39		H		-0.7555		-2.8905		-2.6468		H		1		UNL1		0.1729
40		H		-1.2682		-4.0045		-0.1348		H		1		UNL1		0.3311
41		H		-3.6521		-4.3250		-0.0190		H		1		UNL1		0.1320
42		H		-5.8451		-3.1148		-0.1088		H		1		UNL1		0.1478
43		H		-4.9687		1.0622		-0.0505		H		1		UNL1		0.3458
44		H		-4.6912		3.2937		0.0631		H		1		UNL1		0.1354
45		H		-3.2162		5.2669		0.0759		H		1		UNL1		0.1552
46		H		0.2222		2.6832		-0.0913		H		1		UNL1		0.1603
47		H		-1.2543		0.7049		-0.1109		H		1		UNL1		0.2016
48		H		3.1065		0.7613		-1.9545		H		1		UNL1		0.1330
49		H		5.2141		2.0323		-2.2272		H		1		UNL1		0.1321
50		H		7.0704		1.7009		-0.5892		H		1		UNL1		0.1300
51		H		6.7927		0.0911		1.2652		H		1		UNL1		0.1230
52		H		5.6975		-1.7752		2.2051		H		1		UNL1		0.1542
53		H		4.1324		-2.3597		1.6105		H		1		UNL1		0.1653
54		H		4.2008		-1.0275		2.7603		H		1		UNL1		0.1617
@<TRIPOS>BOND
1		37		8		1
2		39		8		1
3		8		38		1
4		8		4		1
5		49		27		1
6		33		5		1
7		48		26		1
8		27		26		ar
9		27		28		ar
10		26		25		ar
11		5		4		ar
12		5		6		ar
13		4		3		ar
14		50		28		1
15		28		29		ar
16		25		6		1
17		25		30		ar
18		40		9		1
19		47		22		1
20		42		12		1
21		6		1		ar
22		46		21		1
23		13		12		ar
24		13		14		ar
25		12		11		ar
26		22		21		ar
27		22		17		ar
28		21		20		ar
29		43		16		1
30		16		14		1
31		16		17		1
32		14		15		ar
33		11		41		1
34		11		10		ar
35		17		18		ar
36		20		23		1
37		20		19		ar
38		23		24		3
39		15		10		ar
40		10		9		1
41		3		9		1
42		3		2		ar
43		18		19		ar
44		18		44		1
45		19		45		1
46		29		30		ar
47		29		51		1
48		30		31		1
49		1		2		ar
50		1		32		1
51		2		7		1
52		53		31		1
53		31		52		1
54		31		54		1
55		35		7		1
56		7		34		1
57		7		36		1

