@<TRIPOS>MOLECULE
JKJ-2018-EJMC-726-3-4n
 55 58 0 0 0
SMALL
MULLIKEN_CHARGES

@<TRIPOS>ATOM
1		C		-0.8750		-1.4914		1.1910		C.ar		1		UNL1		-0.2760
2		C		0.5001		-1.6974		1.3345		C.ar		1		UNL1		0.2039
3		C		1.1816		-2.3809		0.3104		C.ar		1		UNL1		0.1631
4		C		0.4916		-2.8921		-0.8051		C.ar		1		UNL1		0.1936
5		C		-0.8852		-2.6798		-0.8971		C.ar		1		UNL1		-0.2724
6		C		-1.5894		-1.9632		0.0813		C.ar		1		UNL1		0.1221
7		C		1.2156		-1.1953		2.5633		C.3		1		UNL1		-0.5336
8		C		1.2263		-3.6318		-1.8988		C.3		1		UNL1		-0.5404
9		N		2.5953		-2.5855		0.4048		N.pl3		1		UNL1		-0.7598
10		C		3.5372		-1.6041		0.2201		C.ar		1		UNL1		0.5713
11		C		4.9173		-1.9022		0.2171		C.ar		1		UNL1		-0.2235
12		C		5.7718		-0.8270		0.0357		C.ar		1		UNL1		0.0651
13		N		5.3607		0.4377		-0.1289		N.ar		1		UNL1		-0.5056
14		C		4.0254		0.5994		-0.1085		C.ar		1		UNL1		0.6875
15		N		3.0981		-0.3482		0.0529		N.ar		1		UNL1		-0.5676
16		N		3.6242		1.9135		-0.2722		N.pl3		1		UNL1		-0.7669
17		C		2.3620		2.5022		-0.3147		C.ar		1		UNL1		0.3795
18		C		2.3084		3.9122		-0.3099		C.ar		1		UNL1		-0.2028
19		C		1.0957		4.5815		-0.3471		C.ar		1		UNL1		-0.1417
20		C		-0.1096		3.8582		-0.3947		C.ar		1		UNL1		0.1312
21		C		-0.0562		2.4546		-0.4166		C.ar		1		UNL1		-0.1662
22		C		1.1548		1.7788		-0.3776		C.ar		1		UNL1		-0.1661
23		C		-1.3753		4.5238		-0.4070		C.1		1		UNL1		0.2319
24		N		-2.4196		5.0399		-0.4054		N.1		1		UNL1		-0.5018
25		C		-3.0461		-1.7059		-0.0608		C.ar		1		UNL1		0.0831
26		C		-3.5763		-0.4506		0.2941		C.ar		1		UNL1		-0.2573
27		C		-4.9429		-0.1917		0.1499		C.ar		1		UNL1		0.3834
28		C		-5.7949		-1.1924		-0.3437		C.ar		1		UNL1		-0.1695
29		C		-5.2716		-2.4313		-0.6904		C.ar		1		UNL1		-0.1363
30		C		-3.9059		-2.6948		-0.5556		C.ar		1		UNL1		-0.1810
31		O		-5.5426		0.9941		0.4503		O.3		1		UNL1		-0.5100
32		C		-4.7371		2.0739		0.9048		C.3		1		UNL1		-0.2227
33		H		-1.4096		-0.9761		1.9847		H		1		UNL1		0.1307
34		H		-1.4146		-3.0406		-1.7748		H		1		UNL1		0.1309
35		H		1.7712		-0.2761		2.3448		H		1		UNL1		0.1822
36		H		1.9400		-1.9294		2.9320		H		1		UNL1		0.1578
37		H		0.5032		-0.9795		3.3652		H		1		UNL1		0.1542
38		H		1.6242		-4.5956		-1.5507		H		1		UNL1		0.1505
39		H		2.0757		-3.0514		-2.2772		H		1		UNL1		0.1714
40		H		0.5595		-3.8439		-2.7393		H		1		UNL1		0.1659
41		H		2.9317		-3.5350		0.3134		H		1		UNL1		0.3307
42		H		5.2900		-2.9116		0.3544		H		1		UNL1		0.1330
43		H		6.8497		-0.9802		0.0219		H		1		UNL1		0.1484
44		H		4.4177		2.5388		-0.3345		H		1		UNL1		0.3454
45		H		3.2332		4.4828		-0.2666		H		1		UNL1		0.1365
46		H		1.0738		5.6665		-0.3337		H		1		UNL1		0.1554
47		H		-0.9785		1.8844		-0.4695		H		1		UNL1		0.1628
48		H		1.1781		0.6998		-0.3878		H		1		UNL1		0.2048
49		H		-2.9061		0.3213		0.6544		H		1		UNL1		0.1388
50		H		-6.8520		-0.9695		-0.4475		H		1		UNL1		0.1386
51		H		-5.9353		-3.2058		-1.0658		H		1		UNL1		0.1303
52		H		-3.5134		-3.6754		-0.8069		H		1		UNL1		0.1251
53		H		-3.9996		2.3773		0.1515		H		1		UNL1		0.1685
54		H		-4.2216		1.8254		1.8418		H		1		UNL1		0.1464
55		H		-5.4228		2.9039		1.0808		H		1		UNL1		0.1770
@<TRIPOS>BOND
1		40		8		1
2		39		8		1
3		8		38		1
4		8		4		1
5		34		5		1
6		51		29		1
7		5		4		ar
8		5		6		ar
9		52		30		1
10		4		3		ar
11		29		30		ar
12		29		28		ar
13		30		25		ar
14		47		21		1
15		50		28		1
16		21		20		ar
17		21		22		ar
18		23		24		3
19		23		20		1
20		20		19		ar
21		48		22		1
22		22		17		ar
23		19		46		1
24		19		18		ar
25		28		27		ar
26		44		16		1
27		17		18		ar
28		17		16		1
29		18		45		1
30		16		14		1
31		13		14		ar
32		13		12		ar
33		14		15		ar
34		25		6		1
35		25		26		ar
36		43		12		1
37		12		11		ar
38		15		10		ar
39		6		1		ar
40		27		26		ar
41		27		31		1
42		53		32		1
43		11		10		ar
44		11		42		1
45		10		9		1
46		26		49		1
47		3		9		1
48		3		2		ar
49		41		9		1
50		31		32		1
51		32		55		1
52		32		54		1
53		1		2		ar
54		1		33		1
55		2		7		1
56		35		7		1
57		7		36		1
58		7		37		1

