@<TRIPOS>MOLECULE
JKJ-2018-EJMC-726-3-4f
 51 54 0 0 0
SMALL
MULLIKEN_CHARGES

@<TRIPOS>ATOM
1		C		2.0908		-1.4199		-0.8972		C.ar		1		UNL1		-0.2436
2		C		0.9594		-2.2367		-0.8893		C.ar		1		UNL1		0.1833
3		C		0.0883		-2.1788		0.2161		C.ar		1		UNL1		0.1736
4		C		0.3488		-1.3263		1.3046		C.ar		1		UNL1		0.2019
5		C		1.4831		-0.5103		1.2450		C.ar		1		UNL1		-0.2661
6		C		2.3682		-0.5449		0.1605		C.ar		1		UNL1		0.1051
7		C		0.6746		-3.1574		-2.0529		C.3		1		UNL1		-0.5392
8		C		-0.5456		-1.2933		2.5181		C.3		1		UNL1		-0.5350
9		N		-1.0392		-3.0572		0.2440		N.pl3		1		UNL1		-0.7634
10		C		-2.3552		-2.6893		0.1215		C.ar		1		UNL1		0.5738
11		C		-3.3723		-3.6684		0.0842		C.ar		1		UNL1		-0.2259
12		C		-4.6688		-3.1972		-0.0298		C.ar		1		UNL1		0.0666
13		N		-4.9859		-1.8984		-0.1049		N.ar		1		UNL1		-0.5068
14		C		-3.9355		-1.0583		-0.0623		C.ar		1		UNL1		0.6897
15		N		-2.6419		-1.3805		0.0467		N.ar		1		UNL1		-0.5687
16		N		-4.3026		0.2723		-0.1425		N.pl3		1		UNL1		-0.7688
17		C		-3.5661		1.4536		-0.1767		C.ar		1		UNL1		0.3817
18		C		-4.2987		2.6596		-0.1773		C.ar		1		UNL1		-0.2040
19		C		-3.6565		3.8856		-0.2185		C.ar		1		UNL1		-0.1414
20		C		-2.2519		3.9470		-0.2615		C.ar		1		UNL1		0.1315
21		C		-1.5223		2.7466		-0.2653		C.ar		1		UNL1		-0.1615
22		C		-2.1597		1.5135		-0.2236		C.ar		1		UNL1		-0.1685
23		C		-1.5775		5.2078		-0.2994		C.1		1		UNL1		0.2232
24		N		-1.0246		6.2322		-0.3282		N.1		1		UNL1		-0.4884
25		C		3.5387		0.3750		0.1316		C.ar		1		UNL1		0.0713
26		C		3.3260		1.7522		0.3263		C.ar		1		UNL1		-0.1647
27		C		4.3699		2.6732		0.3075		C.ar		1		UNL1		-0.1324
28		C		5.6757		2.2329		0.0919		C.ar		1		UNL1		-0.1213
29		C		5.9253		0.8747		-0.0941		C.ar		1		UNL1		-0.1353
30		C		4.8684		-0.0359		-0.0718		C.ar		1		UNL1		-0.1152
31		CL		5.2799		-1.7430		-0.2538		Cl		1		UNL1		-0.0207
32		H		2.7558		-1.4513		-1.7546		H		1		UNL1		0.1410
33		H		1.7006		0.1446		2.0847		H		1		UNL1		0.1341
34		H		-0.3425		-3.0191		-2.4374		H		1		UNL1		0.1718
35		H		0.7734		-4.2165		-1.7752		H		1		UNL1		0.1519
36		H		1.3760		-2.9748		-2.8718		H		1		UNL1		0.1678
37		H		-0.0451		-0.7977		3.3552		H		1		UNL1		0.1550
38		H		-0.8252		-2.3047		2.8325		H		1		UNL1		0.1594
39		H		-1.4759		-0.7541		2.3068		H		1		UNL1		0.1844
40		H		-0.8510		-4.0374		0.0799		H		1		UNL1		0.3326
41		H		-3.1526		-4.7286		0.1502		H		1		UNL1		0.1334
42		H		-5.5057		-3.8930		-0.0623		H		1		UNL1		0.1488
43		H		-5.3090		0.3703		-0.1897		H		1		UNL1		0.3463
44		H		-5.3852		2.6252		-0.1421		H		1		UNL1		0.1365
45		H		-4.2361		4.8031		-0.2161		H		1		UNL1		0.1561
46		H		-0.4380		2.7826		-0.3059		H		1		UNL1		0.1574
47		H		-1.5866		0.5980		-0.2281		H		1		UNL1		0.2001
48		H		2.3069		2.0961		0.4787		H		1		UNL1		0.1484
49		H		4.1617		3.7291		0.4535		H		1		UNL1		0.1462
50		H		6.5011		2.9388		0.0712		H		1		UNL1		0.1423
51		H		6.9359		0.5114		-0.2473		H		1		UNL1		0.1560
@<TRIPOS>BOND
1		36		7		1
2		34		7		1
3		7		35		1
4		7		2		1
5		32		1		1
6		1		2		ar
7		1		6		ar
8		2		3		ar
9		24		23		3
10		46		21		1
11		23		20		1
12		21		20		ar
13		21		22		ar
14		20		19		ar
15		31		30		1
16		51		29		1
17		47		22		1
18		22		17		ar
19		19		45		1
20		19		18		ar
21		43		16		1
22		18		17		ar
23		18		44		1
24		17		16		1
25		16		14		1
26		13		14		ar
27		13		12		ar
28		29		30		ar
29		29		28		ar
30		30		25		ar
31		14		15		ar
32		42		12		1
33		12		11		ar
34		15		10		ar
35		50		28		1
36		40		9		1
37		11		10		ar
38		11		41		1
39		28		27		ar
40		10		9		1
41		25		6		1
42		25		26		ar
43		6		5		ar
44		3		9		1
45		3		4		ar
46		27		26		ar
47		27		49		1
48		26		48		1
49		5		4		ar
50		5		33		1
51		4		8		1
52		39		8		1
53		8		38		1
54		8		37		1

