@<TRIPOS>MOLECULE
JKJ-2019-EJMC-11-4p
 46 49 0 0 0
SMALL
MULLIKEN_CHARGES
****
Gaussian 16 #p B3LYP/6-31G* opt
@<TRIPOS>ATOM
1		C		-5.7032		2.6845		0.0268		C.3		1		UNL1		-0.2145
2		O		-4.5913		1.8046		-0.0290		O.3		1		UNL1		-0.5492
3		C		-4.8216		0.4750		-0.3026		C.ar		1		UNL1		0.3336
4		C		-6.0734		-0.0793		-0.5488		C.ar		1		UNL1		-0.2021
5		C		-6.1860		-1.4485		-0.8183		C.ar		1		UNL1		-0.1360
6		C		-5.0484		-2.2474		-0.8360		C.ar		1		UNL1		-0.1456
7		C		-3.7861		-1.6996		-0.5864		C.ar		1		UNL1		-0.1606
8		C		-3.6584		-0.3343		-0.3211		C.ar		1		UNL1		0.3048
9		N		-2.4530		0.3397		-0.0575		N.pl3		1		UNL1		-0.7985
10		C		-1.1613		-0.1210		-0.0524		C.cat		1		UNL1		0.8197
11		N		-0.8650		-1.3760		-0.1915		N.2		1		UNL1		-0.6342
12		C		0.4860		-1.7066		-0.2172		C.ar		1		UNL1		0.2990
13		C		0.8422		-3.0199		-0.5743		C.ar		1		UNL1		-0.1749
14		C		2.1705		-3.4236		-0.6213		C.ar		1		UNL1		-0.1286
15		C		3.1744		-2.5049		-0.3095		C.ar		1		UNL1		-0.0801
16		CL		4.8630		-3.0036		-0.3667		Cl		1		UNL1		-0.0365
17		C		2.8591		-1.1980		0.0480		C.ar		1		UNL1		-0.1826
18		C		1.5229		-0.8014		0.0925		C.ar		1		UNL1		0.1001
19		C		1.1406		0.6135		0.5308		C.3		1		UNL1		-0.1227
20		C		2.0555		1.6396		0.0111		C.1		1		UNL1		0.1030
21		C		2.8009		2.4938		-0.4130		C.1		1		UNL1		0.0294
22		C		3.6898		3.5020		-0.9234		C.3		1		UNL1		-0.2839
23		C		4.8467		3.1090		-1.8345		C.3		1		UNL1		-0.2969
24		C		3.6782		3.8512		-2.4072		C.3		1		UNL1		-0.2982
25		C		1.1451		0.7075		2.0908		C.3		1		UNL1		0.8551
26		F		0.7009		1.9236		2.4878		F		1		UNL1		-0.2717
27		F		2.3745		0.5293		2.6010		F		1		UNL1		-0.2507
28		F		0.3280		-0.2142		2.6308		F		1		UNL1		-0.2551
29		N		-0.2145		0.8875		0.0522		N.pl3		1		UNL1		-0.6754
30		H		-6.2271		2.7270		-0.9365		H		1		UNL1		0.1592
31		H		-6.4098		2.3849		0.8111		H		1		UNL1		0.1603
32		H		-5.2969		3.6699		0.2620		H		1		UNL1		0.1692
33		H		-6.9611		0.5429		-0.5342		H		1		UNL1		0.1316
34		H		-7.1660		-1.8760		-1.0095		H		1		UNL1		0.1269
35		H		-5.1302		-3.3109		-1.0412		H		1		UNL1		0.1287
36		H		-2.8942		-2.3096		-0.5888		H		1		UNL1		0.1855
37		H		-2.5930		1.3237		0.1277		H		1		UNL1		0.3486
38		H		0.0448		-3.7149		-0.8174		H		1		UNL1		0.1432
39		H		2.4303		-4.4396		-0.8996		H		1		UNL1		0.1514
40		H		3.6457		-0.4918		0.2884		H		1		UNL1		0.1632
41		H		3.8821		4.3282		-0.2420		H		1		UNL1		0.1777
42		H		5.7840		3.6390		-1.6925		H		1		UNL1		0.1649
43		H		4.9520		2.0554		-2.0726		H		1		UNL1		0.1774
44		H		2.9834		3.3051		-3.0375		H		1		UNL1		0.1736
45		H		3.8001		4.8990		-2.6658		H		1		UNL1		0.1632
46		H		-0.5281		1.8359		0.2109		H		1		UNL1		0.3288
@<TRIPOS>BOND
1		44		24		1
2		45		24		1
3		24		23		1
4		24		22		1
5		43		23		1
6		23		42		1
7		23		22		1
8		35		6		1
9		34		5		1
10		30		1		1
11		22		21		1
12		22		41		1
13		39		14		1
14		6		5		ar
15		6		7		ar
16		5		4		ar
17		38		13		1
18		14		13		ar
19		14		15		ar
20		36		7		1
21		7		8		ar
22		13		12		ar
23		4		33		1
24		4		3		ar
25		21		20		3
26		16		15		1
27		8		3		ar
28		8		9		1
29		15		17		ar
30		3		2		1
31		12		11		1
32		12		18		ar
33		11		10		2
34		9		10		1
35		9		37		1
36		10		29		1
37		2		1		1
38		20		19		1
39		1		32		1
40		1		31		1
41		17		18		ar
42		17		40		1
43		29		46		1
44		29		19		1
45		18		19		1
46		19		25		1
47		25		26		1
48		25		27		1
49		25		28		1

