@<TRIPOS>MOLECULE
JKJ-2019-EJMC-11-4n
 46 49 0 0 0
SMALL
MULLIKEN_CHARGES
****
Gaussian 16 #p B3LYP/6-31G* opt
@<TRIPOS>ATOM
1		C		7.7349		0.7573		-0.3343		C.3		1		UNL1		-0.2172
2		O		6.6261		0.6611		0.5457		O.3		1		UNL1		-0.5062
3		C		5.4926		0.0523		0.0920		C.ar		1		UNL1		0.3827
4		C		5.3322		-0.4875		-1.1896		C.ar		1		UNL1		-0.2017
5		C		4.1159		-1.0708		-1.5491		C.ar		1		UNL1		-0.1734
6		C		3.0578		-1.1564		-0.6398		C.ar		1		UNL1		0.2933
7		N		1.8615		-1.8061		-1.0338		N.pl3		1		UNL1		-0.7455
8		C		0.5634		-1.4752		-0.7262		C.cat		1		UNL1		0.7552
9		N		-0.3568		-2.3766		-0.9023		N.2		1		UNL1		-0.6285
10		C		-1.6689		-1.9740		-0.6896		C.ar		1		UNL1		0.2885
11		C		-2.7060		-2.8433		-1.0769		C.ar		1		UNL1		-0.1756
12		C		-4.0409		-2.5078		-0.8919		C.ar		1		UNL1		-0.1275
13		C		-4.3623		-1.2790		-0.3118		C.ar		1		UNL1		-0.0819
14		CL		-6.0527		-0.8411		-0.0730		Cl		1		UNL1		-0.0396
15		C		-3.3644		-0.3942		0.0836		C.ar		1		UNL1		-0.1804
16		C		-2.0260		-0.7389		-0.1040		C.ar		1		UNL1		0.0948
17		C		-0.9044		0.1928		0.3641		C.3		1		UNL1		-0.1136
18		C		-1.1995		1.6106		0.1164		C.1		1		UNL1		0.0952
19		C		-1.4316		2.7814		-0.0848		C.1		1		UNL1		0.0322
20		C		-1.7137		4.1697		-0.3292		C.3		1		UNL1		-0.2835
21		C		-3.0303		4.5779		-0.9795		C.3		1		UNL1		-0.2973
22		C		-1.7559		4.7010		-1.7573		C.3		1		UNL1		-0.2978
23		C		-0.6638		0.0091		1.8978		C.3		1		UNL1		0.8694
24		F		0.3900		0.7584		2.3040		F		1		UNL1		-0.2733
25		F		-0.3710		-1.2733		2.1877		F		1		UNL1		-0.2614
26		F		-1.7326		0.3706		2.6241		F		1		UNL1		-0.2498
27		N		0.3228		-0.1798		-0.3372		N.pl3		1		UNL1		-0.6596
28		C		3.2364		-0.6362		0.6554		C.ar		1		UNL1		-0.1773
29		C		4.4320		-0.0236		1.0067		C.ar		1		UNL1		-0.1856
30		H		7.4905		1.3451		-1.2292		H		1		UNL1		0.1530
31		H		8.5195		1.2667		0.2277		H		1		UNL1		0.1739
32		H		8.0942		-0.2341		-0.6410		H		1		UNL1		0.1537
33		H		6.1334		-0.4469		-1.9184		H		1		UNL1		0.1386
34		H		3.9861		-1.4639		-2.5539		H		1		UNL1		0.1378
35		H		1.9289		-2.7093		-1.4847		H		1		UNL1		0.3468
36		H		-2.4297		-3.7898		-1.5305		H		1		UNL1		0.1406
37		H		-4.8297		-3.1879		-1.1963		H		1		UNL1		0.1498
38		H		-3.6247		0.5573		0.5333		H		1		UNL1		0.1617
39		H		-1.3227		4.8539		0.4212		H		1		UNL1		0.1780
40		H		-3.7182		3.7812		-1.2443		H		1		UNL1		0.1773
41		H		-3.5031		5.4807		-0.6041		H		1		UNL1		0.1647
42		H		-1.5712		3.9882		-2.5548		H		1		UNL1		0.1734
43		H		-1.3393		5.6898		-1.9254		H		1		UNL1		0.1631
44		H		1.0990		0.4626		-0.2575		H		1		UNL1		0.3441
45		H		2.4435		-0.7226		1.3909		H		1		UNL1		0.1589
46		H		4.5754		0.3840		2.0023		H		1		UNL1		0.1500
@<TRIPOS>BOND
1		42		22		1
2		34		5		1
3		43		22		1
4		33		4		1
5		22		21		1
6		22		20		1
7		5		4		ar
8		5		6		ar
9		36		11		1
10		35		7		1
11		40		21		1
12		30		1		1
13		37		12		1
14		4		3		ar
15		11		12		ar
16		11		10		ar
17		7		8		1
18		7		6		1
19		21		41		1
20		21		20		1
21		9		8		2
22		9		10		1
23		12		13		ar
24		8		27		1
25		10		16		ar
26		32		1		1
27		6		28		ar
28		27		44		1
29		27		17		1
30		1		31		1
31		1		2		1
32		20		19		1
33		20		39		1
34		13		14		1
35		13		15		ar
36		16		15		ar
37		16		17		1
38		19		18		3
39		15		38		1
40		3		2		1
41		3		29		ar
42		18		17		1
43		17		23		1
44		28		29		ar
45		28		45		1
46		29		46		1
47		23		25		1
48		23		24		1
49		23		26		1

