@<TRIPOS>MOLECULE
JKJ-2018-EJMC-726-3-4k
 54 57 0 0 0
SMALL
MULLIKEN_CHARGES

@<TRIPOS>ATOM
1		C		1.5986		-2.3579		-0.9435		C.ar		1		UNL1		-0.2736
2		C		0.2709		-2.7832		-0.8785		C.ar		1		UNL1		0.1902
3		C		-0.5027		-2.4193		0.2402		C.ar		1		UNL1		0.1693
4		C		0.0495		-1.6593		1.2881		C.ar		1		UNL1		0.2015
5		C		1.3781		-1.2411		1.1720		C.ar		1		UNL1		-0.2763
6		C		2.1741		-1.5739		0.0669		C.ar		1		UNL1		0.1282
7		C		-0.3264		-3.6030		-1.9984		C.3		1		UNL1		-0.5396
8		C		-0.7491		-1.3142		2.5200		C.3		1		UNL1		-0.5343
9		N		-1.8516		-2.8870		0.3235		N.pl3		1		UNL1		-0.7621
10		C		-2.9787		-2.1165		0.1870		C.ar		1		UNL1		0.5735
11		C		-4.2597		-2.7112		0.1840		C.ar		1		UNL1		-0.2261
12		C		-5.3329		-1.8471		0.0500		C.ar		1		UNL1		0.0665
13		N		-5.2106		-0.5190		-0.0707		N.ar		1		UNL1		-0.5073
14		C		-3.9431		-0.0663		-0.0542		C.ar		1		UNL1		0.6892
15		N		-2.8245		-0.7893		0.0652		N.ar		1		UNL1		-0.5682
16		N		-3.8567		1.3080		-0.1773		N.pl3		1		UNL1		-0.7688
17		C		-2.7759		2.1855		-0.2210		C.ar		1		UNL1		0.3812
18		C		-3.0781		3.5634		-0.2561		C.ar		1		UNL1		-0.2043
19		C		-2.0729		4.5143		-0.3056		C.ar		1		UNL1		-0.1413
20		C		-0.7237		4.1171		-0.3226		C.ar		1		UNL1		0.1301
21		C		-0.4219		2.7454		-0.2930		C.ar		1		UNL1		-0.1616
22		C		-1.4254		1.7864		-0.2431		C.ar		1		UNL1		-0.1680
23		C		0.3220		5.0921		-0.3675		C.1		1		UNL1		0.2248
24		N		1.1747		5.8844		-0.4012		N.1		1		UNL1		-0.4891
25		C		3.5834		-1.1151		-0.0294		C.ar		1		UNL1		0.0910
26		C		3.9540		0.1642		0.4182		C.ar		1		UNL1		-0.2361
27		C		5.2712		0.6255		0.3377		C.ar		1		UNL1		0.1766
28		C		6.2436		-0.2278		-0.2022		C.ar		1		UNL1		-0.1753
29		C		5.8976		-1.5012		-0.6518		C.ar		1		UNL1		-0.1318
30		C		4.5787		-1.9451		-0.5685		C.ar		1		UNL1		-0.1780
31		C		5.6335		2.0207		0.7922		C.3		1		UNL1		-0.5306
32		H		2.1869		-2.6102		-1.8216		H		1		UNL1		0.1295
33		H		1.8162		-0.6743		1.9892		H		1		UNL1		0.1314
34		H		-1.2504		-3.1524		-2.3789		H		1		UNL1		0.1730
35		H		-0.5755		-4.6243		-1.6767		H		1		UNL1		0.1492
36		H		0.3759		-3.6912		-2.8321		H		1		UNL1		0.1652
37		H		-0.0906		-0.9846		3.3291		H		1		UNL1		0.1542
38		H		-1.3272		-2.1750		2.8733		H		1		UNL1		0.1579
39		H		-1.4644		-0.5105		2.3122		H		1		UNL1		0.1835
40		H		-1.9943		-3.8806		0.1985		H		1		UNL1		0.3309
41		H		-4.3970		-3.7823		0.2872		H		1		UNL1		0.1322
42		H		-6.3510		-2.2329		0.0390		H		1		UNL1		0.1479
43		H		-4.7762		1.7276		-0.2323		H		1		UNL1		0.3458
44		H		-4.1174		3.8835		-0.2403		H		1		UNL1		0.1357
45		H		-2.3242		5.5699		-0.3295		H		1		UNL1		0.1553
46		H		0.6156		2.4263		-0.3123		H		1		UNL1		0.1587
47		H		-1.1786		0.7351		-0.2226		H		1		UNL1		0.2022
48		H		3.1895		0.8264		0.8179		H		1		UNL1		0.1275
49		H		7.2757		0.1088		-0.2697		H		1		UNL1		0.1233
50		H		6.6622		-2.1575		-1.0596		H		1		UNL1		0.1289
51		H		4.3242		-2.9497		-0.8941		H		1		UNL1		0.1275
52		H		6.5821		2.0289		1.3409		H		1		UNL1		0.1582
53		H		4.8624		2.4444		1.4432		H		1		UNL1		0.1598
54		H		5.7489		2.7000		-0.0625		H		1		UNL1		0.1721
@<TRIPOS>BOND
1		36		7		1
2		34		7		1
3		7		35		1
4		7		2		1
5		32		1		1
6		50		29		1
7		1		2		ar
8		1		6		ar
9		51		30		1
10		2		3		ar
11		29		30		ar
12		29		28		ar
13		30		25		ar
14		24		23		3
15		23		20		1
16		45		19		1
17		20		19		ar
18		20		21		ar
19		46		21		1
20		19		18		ar
21		21		22		ar
22		49		28		1
23		18		44		1
24		18		17		ar
25		22		47		1
26		22		17		ar
27		43		16		1
28		17		16		1
29		28		27		ar
30		16		14		1
31		13		14		ar
32		13		12		ar
33		54		31		1
34		14		15		ar
35		25		6		1
36		25		26		ar
37		42		12		1
38		12		11		ar
39		15		10		ar
40		6		5		ar
41		11		10		ar
42		11		41		1
43		10		9		1
44		40		9		1
45		3		9		1
46		3		4		ar
47		27		26		ar
48		27		31		1
49		26		48		1
50		31		52		1
51		31		53		1
52		5		4		ar
53		5		33		1
54		4		8		1
55		39		8		1
56		8		38		1
57		8		37		1

