@<TRIPOS>MOLECULE
JKJ-2018-EJMC-726-3-4a
 51 54 0 0 0
SMALL
MULLIKEN_CHARGES

@<TRIPOS>ATOM
1		C		-2.0814		-1.9754		-0.9862		C.ar		1		UNL1		-0.2730
2		C		-0.8118		-2.5551		-0.9627		C.ar		1		UNL1		0.1917
3		C		0.0019		-2.3570		0.1687		C.ar		1		UNL1		0.1691
4		C		-0.4536		-1.6049		1.2677		C.ar		1		UNL1		0.2003
5		C		-1.7247		-1.0280		1.1927		C.ar		1		UNL1		-0.2766
6		C		-2.5580		-1.1970		0.0782		C.ar		1		UNL1		0.1287
7		C		-0.3278		-3.3825		-2.1307		C.3		1		UNL1		-0.5393
8		C		0.3937		-1.4166		2.5011		C.3		1		UNL1		-0.5336
9		N		1.2856		-2.9868		0.2113		N.pl3		1		UNL1		-0.7628
10		C		2.4957		-2.3512		0.0942		C.ar		1		UNL1		0.5740
11		C		3.6955		-3.0944		0.0441		C.ar		1		UNL1		-0.2265
12		C		4.8635		-2.3598		-0.0674		C.ar		1		UNL1		0.0666
13		N		4.9005		-1.0227		-0.1266		N.ar		1		UNL1		-0.5074
14		C		3.6971		-0.4221		-0.0688		C.ar		1		UNL1		0.6893
15		N		2.5008		-1.0106		0.0371		N.ar		1		UNL1		-0.5686
16		N		3.7773		0.9563		-0.1314		N.pl3		1		UNL1		-0.7691
17		C		2.8122		1.9611		-0.1265		C.ar		1		UNL1		0.3813
18		C		3.2822		3.2914		-0.1424		C.ar		1		UNL1		-0.2046
19		C		2.4014		4.3596		-0.1445		C.ar		1		UNL1		-0.1414
20		C		1.0134		4.1322		-0.1303		C.ar		1		UNL1		0.1297
21		C		0.5442		2.8082		-0.1168		C.ar		1		UNL1		-0.1607
22		C		1.4227		1.7320		-0.1159		C.ar		1		UNL1		-0.1687
23		C		0.0982		5.2317		-0.1308		C.1		1		UNL1		0.2263
24		N		-0.6448		6.1283		-0.1313		N.1		1		UNL1		-0.4883
25		C		-3.9059		-0.5746		0.0274		C.ar		1		UNL1		0.0815
26		C		-4.7141		-0.5043		1.1748		C.ar		1		UNL1		-0.1715
27		C		-5.9771		0.0837		1.1266		C.ar		1		UNL1		-0.1335
28		C		-6.4609		0.6140		-0.0708		C.ar		1		UNL1		-0.1252
29		C		-5.6700		0.5507		-1.2194		C.ar		1		UNL1		-0.1332
30		C		-4.4069		-0.0371		-1.1704		C.ar		1		UNL1		-0.1724
31		H		-2.7198		-2.1465		-1.8488		H		1		UNL1		0.1294
32		H		-2.0689		-0.4206		2.0255		H		1		UNL1		0.1322
33		H		-0.2193		-4.4448		-1.8697		H		1		UNL1		0.1506
34		H		0.6491		-3.0388		-2.4896		H		1		UNL1		0.1729
35		H		-1.0338		-3.3275		-2.9641		H		1		UNL1		0.1648
36		H		-0.2080		-1.0341		3.3307		H		1		UNL1		0.1535
37		H		1.2090		-0.7084		2.3151		H		1		UNL1		0.1847
38		H		0.8539		-2.3603		2.8141		H		1		UNL1		0.1580
39		H		1.3064		-3.9845		0.0459		H		1		UNL1		0.3313
40		H		3.7037		-4.1780		0.0956		H		1		UNL1		0.1320
41		H		5.8277		-2.8639		-0.1119		H		1		UNL1		0.1478
42		H		4.7405		1.2621		-0.1892		H		1		UNL1		0.3458
43		H		4.3533		3.4803		-0.1513		H		1		UNL1		0.1353
44		H		2.7805		5.3765		-0.1559		H		1		UNL1		0.1552
45		H		-0.5250		2.6203		-0.1084		H		1		UNL1		0.1606
46		H		1.0490		0.7188		-0.1103		H		1		UNL1		0.2016
47		H		-4.3583		-0.9365		2.1059		H		1		UNL1		0.1317
48		H		-6.5874		0.1210		2.0251		H		1		UNL1		0.1321
49		H		-7.4447		1.0738		-0.1081		H		1		UNL1		0.1322
50		H		-6.0322		0.9694		-2.1546		H		1		UNL1		0.1333
51		H		-3.7884		-0.0557		-2.0635		H		1		UNL1		0.1328
@<TRIPOS>BOND
1		35		7		1
2		34		7		1
3		50		29		1
4		7		33		1
5		7		2		1
6		51		30		1
7		31		1		1
8		29		30		ar
9		29		28		ar
10		30		25		ar
11		1		2		ar
12		1		6		ar
13		2		3		ar
14		42		16		1
15		44		19		1
16		43		18		1
17		19		18		ar
18		19		20		ar
19		18		17		ar
20		16		17		1
21		16		14		1
22		24		23		3
23		23		20		1
24		20		21		ar
25		13		14		ar
26		13		12		ar
27		17		22		ar
28		21		22		ar
29		21		45		1
30		22		46		1
31		41		12		1
32		49		28		1
33		28		27		ar
34		14		15		ar
35		12		11		ar
36		25		6		1
37		25		26		ar
38		15		10		ar
39		11		10		ar
40		11		40		1
41		39		9		1
42		6		5		ar
43		10		9		1
44		3		9		1
45		3		4		ar
46		27		26		ar
47		27		48		1
48		26		47		1
49		5		4		ar
50		5		32		1
51		4		8		1
52		37		8		1
53		8		38		1
54		8		36		1

