@<TRIPOS>MOLECULE
JKJ-2018-EJMC-726-3-4d
 51 54 0 0 0
SMALL
MULLIKEN_CHARGES

@<TRIPOS>ATOM
1		C		1.3585		-2.2184		-0.9089		C.ar		1		UNL1		-0.2732
2		C		0.0473		-2.6962		-0.8889		C.ar		1		UNL1		0.1889
3		C		-0.7686		-2.3895		0.2170		C.ar		1		UNL1		0.1731
4		C		-0.2746		-1.6314		1.2956		C.ar		1		UNL1		0.2023
5		C		1.0393		-1.1603		1.2252		C.ar		1		UNL1		-0.2772
6		C		1.8760		-1.4387		0.1353		C.ar		1		UNL1		0.1303
7		C		-0.4866		-3.5125		-2.0426		C.3		1		UNL1		-0.5403
8		C		-1.1170		-1.3458		2.5133		C.3		1		UNL1		-0.5349
9		N		-2.0957		-2.9180		0.2571		N.pl3		1		UNL1		-0.7637
10		C		-3.2562		-2.1967		0.1239		C.ar		1		UNL1		0.5734
11		C		-4.5065		-2.8516		0.0889		C.ar		1		UNL1		-0.2264
12		C		-5.6181		-2.0364		-0.0400		C.ar		1		UNL1		0.0671
13		N		-5.5573		-0.7019		-0.1286		N.ar		1		UNL1		-0.5063
14		C		-4.3134		-0.1893		-0.0843		C.ar		1		UNL1		0.6897
15		N		-3.1628		-0.8614		0.0351		N.ar		1		UNL1		-0.5687
16		N		-4.2926		1.1895		-0.1760		N.pl3		1		UNL1		-0.7689
17		C		-3.2557		2.1195		-0.1956		C.ar		1		UNL1		0.3813
18		C		-3.6248		3.4813		-0.2099		C.ar		1		UNL1		-0.2041
19		C		-2.6669		4.4808		-0.2362		C.ar		1		UNL1		-0.1411
20		C		-1.2998		4.1503		-0.2498		C.ar		1		UNL1		0.1307
21		C		-0.9316		2.7948		-0.2405		C.ar		1		UNL1		-0.1601
22		C		-1.8873		1.7873		-0.2139		C.ar		1		UNL1		-0.1675
23		C		-0.3029		5.1759		-0.2713		C.1		1		UNL1		0.2250
24		N		0.5099		6.0095		-0.2861		N.1		1		UNL1		-0.4871
25		C		3.2693		-0.9291		0.0916		C.ar		1		UNL1		0.0851
26		C		3.5909		0.3447		0.5899		C.ar		1		UNL1		-0.1723
27		C		4.8955		0.8320		0.5522		C.ar		1		UNL1		-0.1344
28		C		5.9029		0.0371		0.0076		C.ar		1		UNL1		-0.0637
29		C		5.6187		-1.2314		-0.4958		C.ar		1		UNL1		-0.1349
30		C		4.3089		-1.7037		-0.4497		C.ar		1		UNL1		-0.1689
31		CL		7.5529		0.6419		-0.0450		Cl		1		UNL1		-0.0214
32		H		1.9774		-2.4258		-1.7777		H		1		UNL1		0.1306
33		H		1.4336		-0.5979		2.0672		H		1		UNL1		0.1329
34		H		-1.4297		-3.1036		-2.4229		H		1		UNL1		0.1743
35		H		-0.6800		-4.5561		-1.7561		H		1		UNL1		0.1515
36		H		0.2308		-3.5342		-2.8678		H		1		UNL1		0.1662
37		H		-1.6699		-2.2361		2.8318		H		1		UNL1		0.1596
38		H		-1.8574		-0.5656		2.3044		H		1		UNL1		0.1854
39		H		-0.4927		-1.0101		3.3466		H		1		UNL1		0.1552
40		H		-2.1907		-3.9134		0.1048		H		1		UNL1		0.3318
41		H		-4.5936		-3.9301		0.1659		H		1		UNL1		0.1331
42		H		-6.6165		-2.4695		-0.0737		H		1		UNL1		0.1491
43		H		-5.2309		1.5647		-0.2348		H		1		UNL1		0.3465
44		H		-4.6786		3.7500		-0.1969		H		1		UNL1		0.1365
45		H		-2.9694		5.5230		-0.2447		H		1		UNL1		0.1564
46		H		0.1205		2.5279		-0.2577		H		1		UNL1		0.1560
47		H		-1.5896		0.7491		-0.2095		H		1		UNL1		0.1997
48		H		2.8057		0.9781		0.9923		H		1		UNL1		0.1455
49		H		5.1268		1.8219		0.9306		H		1		UNL1		0.1618
50		H		6.4135		-1.8439		-0.9083		H		1		UNL1		0.1558
51		H		4.0972		-2.7034		-0.8179		H		1		UNL1		0.1399
@<TRIPOS>BOND
1		36		7		1
2		34		7		1
3		7		35		1
4		7		2		1
5		32		1		1
6		1		2		ar
7		1		6		ar
8		50		29		1
9		2		3		ar
10		51		30		1
11		29		30		ar
12		29		28		ar
13		30		25		ar
14		24		23		3
15		23		20		1
16		46		21		1
17		20		21		ar
18		20		19		ar
19		45		19		1
20		21		22		ar
21		19		18		ar
22		43		16		1
23		22		47		1
24		22		17		ar
25		18		44		1
26		18		17		ar
27		17		16		1
28		16		14		1
29		13		14		ar
30		13		12		ar
31		14		15		ar
32		42		12		1
33		31		28		1
34		12		11		ar
35		28		27		ar
36		15		10		ar
37		11		10		ar
38		11		41		1
39		25		6		1
40		25		26		ar
41		40		9		1
42		10		9		1
43		6		5		ar
44		3		9		1
45		3		4		ar
46		27		26		ar
47		27		49		1
48		26		48		1
49		5		4		ar
50		5		33		1
51		4		8		1
52		38		8		1
53		8		37		1
54		8		39		1

