@<TRIPOS>MOLECULE
JKJ-2018-EJMC-726-3-4s
 57 60 0 0 0
SMALL
MULLIKEN_CHARGES

@<TRIPOS>ATOM
1		C		-1.6886		-0.7139		1.1043		C.ar		1		UNL1		-0.2582
2		C		-0.5110		-1.4697		1.1479		C.ar		1		UNL1		0.2020
3		C		-0.1795		-2.2463		0.0217		C.ar		1		UNL1		0.1750
4		C		-1.0163		-2.2826		-1.1102		C.ar		1		UNL1		0.1853
5		C		-2.1912		-1.5261		-1.1001		C.ar		1		UNL1		-0.2539
6		C		-2.5450		-0.7327		-0.0024		C.ar		1		UNL1		0.0820
7		C		0.3509		-1.4605		2.3853		C.3		1		UNL1		-0.5351
8		C		-0.6591		-3.1257		-2.3121		C.3		1		UNL1		-0.5386
9		N		0.9721		-3.0936		0.0398		N.pl3		1		UNL1		-0.7654
10		C		2.2883		-2.7115		0.0036		C.ar		1		UNL1		0.5762
11		C		3.3053		-3.6913		-0.0444		C.ar		1		UNL1		-0.2282
12		C		4.6061		-3.2216		-0.0693		C.ar		1		UNL1		0.0674
13		N		4.9273		-1.9221		-0.0515		N.ar		1		UNL1		-0.5081
14		C		3.8777		-1.0806		-0.0075		C.ar		1		UNL1		0.6901
15		N		2.5781		-1.4007		0.0212		N.ar		1		UNL1		-0.5688
16		N		4.2592		0.2479		0.0093		N.pl3		1		UNL1		-0.7693
17		C		3.5440		1.4422		0.0118		C.ar		1		UNL1		0.3831
18		C		4.2993		2.6316		0.0913		C.ar		1		UNL1		-0.2046
19		C		3.6824		3.8709		0.0904		C.ar		1		UNL1		-0.1416
20		C		2.2813		3.9624		0.0096		C.ar		1		UNL1		0.1326
21		C		1.5292		2.7789		-0.0708		C.ar		1		UNL1		-0.1615
22		C		2.1413		1.5319		-0.0708		C.ar		1		UNL1		-0.1750
23		C		1.6344		5.2383		0.0078		C.1		1		UNL1		0.2219
24		N		1.1077		6.2767		0.0058		N.1		1		UNL1		-0.4877
25		C		-3.8185		0.0590		-0.0072		C.ar		1		UNL1		-0.0761
26		C		-5.0009		-0.5154		0.5066		C.ar		1		UNL1		0.1698
27		C		-6.1822		0.2353		0.4919		C.ar		1		UNL1		-0.1997
28		C		-6.2014		1.5306		-0.0195		C.ar		1		UNL1		-0.1122
29		C		-5.0312		2.0914		-0.5248		C.ar		1		UNL1		-0.1988
30		C		-3.8314		1.3704		-0.5273		C.ar		1		UNL1		0.1688
31		C		-2.5737		2.0047		-1.0784		C.3		1		UNL1		-0.5429
32		C		-5.0098		-1.9205		1.0676		C.3		1		UNL1		-0.5300
33		H		-1.9571		-0.1121		1.9695		H		1		UNL1		0.1326
34		H		-2.8449		-1.5518		-1.9688		H		1		UNL1		0.1300
35		H		-0.1889		-1.0234		3.2305		H		1		UNL1		0.1545
36		H		1.2658		-0.8794		2.2250		H		1		UNL1		0.1858
37		H		0.6606		-2.4749		2.6606		H		1		UNL1		0.1578
38		H		-0.7163		-4.2023		-2.0959		H		1		UNL1		0.1496
39		H		0.3608		-2.9223		-2.6581		H		1		UNL1		0.1734
40		H		-1.3451		-2.9288		-3.1409		H		1		UNL1		0.1658
41		H		0.8092		-4.0687		-0.1741		H		1		UNL1		0.3319
42		H		3.0797		-4.7524		-0.0526		H		1		UNL1		0.1321
43		H		5.4426		-3.9178		-0.1044		H		1		UNL1		0.1481
44		H		5.2679		0.3328		0.0085		H		1		UNL1		0.3464
45		H		5.3834		2.5729		0.1554		H		1		UNL1		0.1360
46		H		4.2791		4.7754		0.1527		H		1		UNL1		0.1558
47		H		0.4476		2.8406		-0.1381		H		1		UNL1		0.1643
48		H		1.5518		0.6288		-0.1370		H		1		UNL1		0.1972
49		H		-7.0947		-0.2052		0.8869		H		1		UNL1		0.1202
50		H		-7.1260		2.1019		-0.0234		H		1		UNL1		0.1271
51		H		-5.0421		3.1030		-0.9232		H		1		UNL1		0.1249
52		H		-2.1622		1.4323		-1.9180		H		1		UNL1		0.1643
53		H		-1.7859		2.0541		-0.3169		H		1		UNL1		0.1693
54		H		-2.7690		3.0232		-1.4268		H		1		UNL1		0.1592
55		H		-4.6857		-2.6568		0.3227		H		1		UNL1		0.1609
56		H		-6.0138		-2.1990		1.4024		H		1		UNL1		0.1511
57		H		-4.3299		-2.0212		1.9219		H		1		UNL1		0.1630
@<TRIPOS>BOND
1		40		8		1
2		39		8		1
3		8		38		1
4		8		4		1
5		34		5		1
6		52		31		1
7		54		31		1
8		4		5		ar
9		4		3		ar
10		5		6		ar
11		31		30		1
12		31		53		1
13		51		29		1
14		30		29		ar
15		30		25		ar
16		29		28		ar
17		41		9		1
18		47		21		1
19		48		22		1
20		43		12		1
21		21		22		ar
22		21		20		ar
23		22		17		ar
24		12		13		ar
25		12		11		ar
26		42		11		1
27		13		14		ar
28		11		10		ar
29		50		28		1
30		28		27		ar
31		14		16		1
32		14		15		ar
33		25		6		1
34		25		26		ar
35		6		1		ar
36		10		15		ar
37		10		9		1
38		24		23		3
39		23		20		1
40		44		16		1
41		16		17		1
42		20		19		ar
43		17		18		ar
44		3		9		1
45		3		2		ar
46		19		18		ar
47		19		46		1
48		18		45		1
49		55		32		1
50		27		26		ar
51		27		49		1
52		26		32		1
53		32		56		1
54		32		57		1
55		1		2		ar
56		1		33		1
57		2		7		1
58		36		7		1
59		7		37		1
60		7		35		1

