@<TRIPOS>MOLECULE
JKJ-2019-EJMC-11-4d
 43 46 0 0 0
SMALL
MULLIKEN_CHARGES
****
Gaussian 16 #p B3LYP/6-31G* opt
@<TRIPOS>ATOM
1		N		5.2037		2.4290		-1.6321		N.1		1		UNL1		-0.4743
2		C		4.9966		1.3708		-1.1960		C.1		1		UNL1		0.2410
3		C		4.7396		0.0683		-0.6500		C.ar		1		UNL1		0.1320
4		C		5.7800		-0.6557		-0.0510		C.ar		1		UNL1		-0.1397
5		C		5.5096		-1.9262		0.4560		C.ar		1		UNL1		-0.1351
6		C		4.2255		-2.4571		0.3959		C.ar		1		UNL1		-0.1650
7		C		3.1747		-1.7328		-0.1979		C.ar		1		UNL1		0.3516
8		N		1.9097		-2.3312		-0.2602		N.pl3		1		UNL1		-0.7603
9		C		0.6404		-1.7783		-0.2696		C.cat		1		UNL1		0.7564
10		N		-0.3410		-2.5745		-0.5528		N.2		1		UNL1		-0.6183
11		C		-1.6159		-2.0161		-0.5799		C.ar		1		UNL1		0.2866
12		C		-2.6771		-2.8054		-1.0555		C.ar		1		UNL1		-0.1725
13		C		-3.9705		-2.3041		-1.1358		C.ar		1		UNL1		-0.1273
14		C		-4.2179		-0.9882		-0.7409		C.ar		1		UNL1		-0.0801
15		CL		-5.8509		-0.3396		-0.8431		Cl		1		UNL1		-0.0296
16		C		-3.1899		-0.1797		-0.2649		C.ar		1		UNL1		-0.1783
17		C		-1.8956		-0.6916		-0.1840		C.ar		1		UNL1		0.0994
18		C		-0.7615		0.1488		0.4053		C.3		1		UNL1		-0.1341
19		C		-0.8105		1.5559		-0.0132		C.1		1		UNL1		0.1078
20		C		-0.8288		2.7176		-0.3533		C.1		1		UNL1		0.0401
21		C		-0.8557		4.0932		-0.7690		C.3		1		UNL1		-0.2837
22		C		0.3075		5.0180		-0.4294		C.3		1		UNL1		-0.2969
23		C		-1.0065		5.2026		0.2653		C.3		1		UNL1		-0.2977
24		C		-0.8317		0.0999		1.9660		C.3		1		UNL1		0.8531
25		F		0.2355		0.7392		2.5018		F		1		UNL1		-0.2688
26		F		-1.9437		0.6838		2.4369		F		1		UNL1		-0.2479
27		F		-0.8019		-1.1702		2.4090		F		1		UNL1		-0.2560
28		N		0.5252		-0.4341		-0.0005		N.pl3		1		UNL1		-0.6648
29		C		3.4456		-0.4694		-0.7438		C.ar		1		UNL1		-0.2192
30		H		6.7750		-0.2287		0.0077		H		1		UNL1		0.1628
31		H		6.3051		-2.5031		0.9180		H		1		UNL1		0.1541
32		H		4.0195		-3.4368		0.8187		H		1		UNL1		0.1492
33		H		1.8696		-3.3391		-0.3446		H		1		UNL1		0.3529
34		H		-2.4551		-3.8213		-1.3663		H		1		UNL1		0.1443
35		H		-4.7816		-2.9223		-1.5058		H		1		UNL1		0.1540
36		H		-3.3931		0.8411		0.0379		H		1		UNL1		0.1666
37		H		-1.3374		4.2679		-1.7288		H		1		UNL1		0.1819
38		H		0.6024		5.7330		-1.1917		H		1		UNL1		0.1687
39		H		1.1316		4.5912		0.1333		H		1		UNL1		0.1735
40		H		-1.0849		4.9010		1.3051		H		1		UNL1		0.1733
41		H		-1.6304		6.0476		-0.0108		H		1		UNL1		0.1660
42		H		1.3281		0.0364		0.3978		H		1		UNL1		0.3426
43		H		2.6777		0.0830		-1.2725		H		1		UNL1		0.1917
@<TRIPOS>BOND
1		37		21		1
2		1		2		3
3		35		13		1
4		34		12		1
5		43		29		1
6		2		3		1
7		38		22		1
8		13		12		ar
9		13		14		ar
10		12		11		ar
11		15		14		1
12		21		22		1
13		21		20		1
14		21		23		1
15		29		3		ar
16		29		7		ar
17		14		16		ar
18		3		4		ar
19		11		10		1
20		11		17		ar
21		10		9		2
22		22		39		1
23		22		23		1
24		20		19		3
25		33		8		1
26		9		8		1
27		9		28		1
28		16		17		ar
29		16		36		1
30		8		7		1
31		7		6		ar
32		17		18		1
33		4		30		1
34		4		5		ar
35		19		18		1
36		41		23		1
37		28		42		1
38		28		18		1
39		23		40		1
40		6		5		ar
41		6		32		1
42		18		24		1
43		5		31		1
44		24		27		1
45		24		26		1
46		24		25		1

