@<TRIPOS>MOLECULE
JKJ-2019-EJMC-11-4v
 42 45 0 0 0
SMALL
MULLIKEN_CHARGES
****
Gaussian 16 #p B3LYP/6-31G* opt
@<TRIPOS>ATOM
1		F		-1.7907		2.0709		2.4968		F		1		UNL1		-0.2702
2		C		-2.0712		0.8063		2.1060		C.3		1		UNL1		0.8585
3		F		-1.1951		-0.0088		2.7205		F		1		UNL1		-0.2556
4		F		-3.3046		0.5010		2.5379		F		1		UNL1		-0.2487
5		C		-1.9503		0.6811		0.5529		C.3		1		UNL1		-0.1142
6		C		-2.9269		1.5921		-0.0580		C.1		1		UNL1		0.0921
7		C		-3.7247		2.3540		-0.5564		C.1		1		UNL1		0.0372
8		C		-4.6751		3.2522		-1.1531		C.3		1		UNL1		-0.2855
9		C		-4.6102		3.5525		-2.6465		C.3		1		UNL1		-0.2981
10		C		-5.7324		2.7171		-2.1121		C.3		1		UNL1		-0.2966
11		N		-0.5997		1.0880		0.1633		N.pl3		1		UNL1		-0.6824
12		C		0.4490		0.1889		0.1259		C.cat		1		UNL1		0.8225
13		N		1.6910		0.7902		0.1734		N.pl3		1		UNL1		-0.7938
14		C		2.9710		0.2499		-0.0390		C.ar		1		UNL1		0.3740
15		C		3.2237		-1.0993		-0.3297		C.ar		1		UNL1		-0.1356
16		C		4.5339		-1.5214		-0.5319		C.ar		1		UNL1		-0.1467
17		C		5.6105		-0.6375		-0.4479		C.ar		1		UNL1		-0.0759
18		CL		7.2324		-1.2343		-0.7086		Cl		1		UNL1		0.0100
19		C		5.3562		0.7070		-0.1526		C.ar		1		UNL1		-0.0785
20		CL		6.6484		1.8788		-0.0283		Cl		1		UNL1		0.0121
21		C		4.0496		1.1429		0.0475		C.ar		1		UNL1		-0.2028
22		N		0.3017		-1.0910		0.0074		N.2		1		UNL1		-0.6321
23		C		-1.0037		-1.5695		-0.0944		C.ar		1		UNL1		0.2959
24		C		-1.1906		-2.9193		-0.4397		C.ar		1		UNL1		-0.1732
25		C		-2.4622		-3.4658		-0.5600		C.ar		1		UNL1		-0.1283
26		C		-3.5768		-2.6559		-0.3353		C.ar		1		UNL1		-0.0789
27		CL		-5.1933		-3.3354		-0.4847		Cl		1		UNL1		-0.0285
28		C		-3.4278		-1.3160		0.0086		C.ar		1		UNL1		-0.1822
29		C		-2.1477		-0.7758		0.1280		C.ar		1		UNL1		0.1013
30		H		-4.9863		4.0764		-0.5147		H		1		UNL1		0.1802
31		H		-3.8300		3.0582		-3.2167		H		1		UNL1		0.1737
32		H		-4.8174		4.5745		-2.9500		H		1		UNL1		0.1659
33		H		-5.7206		1.6511		-2.3157		H		1		UNL1		0.1776
34		H		-6.7234		3.1556		-2.0413		H		1		UNL1		0.1675
35		H		-0.4151		2.0796		0.2281		H		1		UNL1		0.3309
36		H		1.6922		1.7674		0.4290		H		1		UNL1		0.3314
37		H		2.3991		-1.7947		-0.3836		H		1		UNL1		0.1971
38		H		4.7310		-2.5644		-0.7563		H		1		UNL1		0.1643
39		H		3.8809		2.1928		0.2698		H		1		UNL1		0.1485
40		H		-0.3095		-3.5284		-0.6143		H		1		UNL1		0.1454
41		H		-2.5929		-4.5088		-0.8283		H		1		UNL1		0.1555
42		H		-4.2998		-0.6957		0.1818		H		1		UNL1		0.1661
@<TRIPOS>BOND
1		31		9		1
2		32		9		1
3		9		10		1
4		9		8		1
5		33		10		1
6		10		34		1
7		10		8		1
8		8		7		1
9		8		30		1
10		41		25		1
11		38		16		1
12		18		17		1
13		40		24		1
14		25		24		ar
15		25		26		ar
16		7		6		3
17		16		17		ar
18		16		15		ar
19		27		26		1
20		17		19		ar
21		24		23		ar
22		37		15		1
23		26		28		ar
24		15		14		ar
25		19		20		1
26		19		21		ar
27		23		22		1
28		23		29		ar
29		6		5		1
30		14		21		ar
31		14		13		1
32		22		12		2
33		28		29		ar
34		28		42		1
35		21		39		1
36		12		11		1
37		12		13		1
38		29		5		1
39		11		35		1
40		11		5		1
41		13		36		1
42		5		2		1
43		2		1		1
44		2		4		1
45		2		3		1

