@<TRIPOS>MOLECULE
JKJ-2018-EJMC-726-3-4q
 54 57 0 0 0
SMALL
MULLIKEN_CHARGES

@<TRIPOS>ATOM
1		C		-0.7104		-1.5464		1.0077		C.ar		1		UNL1		-0.2754
2		C		0.6548		-1.7848		1.1894		C.ar		1		UNL1		0.2018
3		C		1.3547		-2.4572		0.1693		C.ar		1		UNL1		0.1771
4		C		0.6954		-2.8986		-0.9943		C.ar		1		UNL1		0.1858
5		C		-0.6717		-2.6518		-1.1261		C.ar		1		UNL1		-0.2734
6		C		-1.3974		-1.9726		-0.1374		C.ar		1		UNL1		0.1320
7		C		1.3358		-1.3552		2.4641		C.3		1		UNL1		-0.5357
8		C		1.4514		-3.6160		-2.0880		C.3		1		UNL1		-0.5393
9		N		2.7379		-2.7734		0.3314		N.pl3		1		UNL1		-0.7656
10		C		3.7885		-1.8900		0.3022		C.ar		1		UNL1		0.5741
11		C		5.1150		-2.3608		0.4116		C.ar		1		UNL1		-0.2273
12		C		6.1084		-1.3973		0.3804		C.ar		1		UNL1		0.0675
13		N		5.8694		-0.0867		0.2527		N.ar		1		UNL1		-0.5064
14		C		4.5681		0.2446		0.1542		C.ar		1		UNL1		0.6901
15		N		3.5160		-0.5826		0.1736		N.ar		1		UNL1		-0.5686
16		N		4.3684		1.6049		0.0204		N.pl3		1		UNL1		-0.7692
17		C		3.2278		2.3834		-0.1643		C.ar		1		UNL1		0.3821
18		C		3.4187		3.7801		-0.2205		C.ar		1		UNL1		-0.2046
19		C		2.3503		4.6392		-0.4124		C.ar		1		UNL1		-0.1410
20		C		1.0480		4.1274		-0.5550		C.ar		1		UNL1		0.1309
21		C		0.8569		2.7369		-0.4991		C.ar		1		UNL1		-0.1590
22		C		1.9249		1.8691		-0.3068		C.ar		1		UNL1		-0.1684
23		C		-0.0592		5.0109		-0.7558		C.1		1		UNL1		0.2264
24		N		-0.9567		5.7341		-0.9204		N.1		1		UNL1		-0.4853
25		C		-2.8541		-1.7277		-0.2906		C.ar		1		UNL1		0.0817
26		C		-3.4399		-0.5440		0.1826		C.ar		1		UNL1		-0.2129
27		C		-4.8100		-0.3190		0.0438		C.ar		1		UNL1		-0.0101
28		C		-5.6249		-1.2674		-0.5780		C.ar		1		UNL1		-0.1592
29		C		-5.0535		-2.4459		-1.0557		C.ar		1		UNL1		-0.1381
30		C		-3.6869		-2.6754		-0.9107		C.ar		1		UNL1		-0.1620
31		C		-5.4163		0.9342		0.6182		C.3		1		UNL1		0.7867
32		F		-5.7326		0.7758		1.9261		F		1		UNL1		-0.2626
33		F		-6.5549		1.2826		-0.0205		F		1		UNL1		-0.2705
34		F		-4.5695		1.9838		0.5460		F		1		UNL1		-0.2656
35		H		-1.2601		-1.0559		1.8064		H		1		UNL1		0.1357
36		H		-1.1735		-2.9658		-2.0373		H		1		UNL1		0.1305
37		H		1.9687		-0.4770		2.2948		H		1		UNL1		0.1868
38		H		1.9842		-2.1474		2.8541		H		1		UNL1		0.1598
39		H		0.5988		-1.1028		3.2321		H		1		UNL1		0.1564
40		H		2.3404		-3.0546		-2.3971		H		1		UNL1		0.1756
41		H		0.8178		-3.7603		-2.9676		H		1		UNL1		0.1658
42		H		1.7934		-4.6113		-1.7701		H		1		UNL1		0.1514
43		H		2.9939		-3.7443		0.2096		H		1		UNL1		0.3322
44		H		5.3434		-3.4153		0.5239		H		1		UNL1		0.1329
45		H		7.1557		-1.6837		0.4625		H		1		UNL1		0.1491
46		H		5.2490		2.1036		0.0440		H		1		UNL1		0.3467
47		H		4.4210		4.1877		-0.1111		H		1		UNL1		0.1363
48		H		2.5151		5.7111		-0.4536		H		1		UNL1		0.1565
49		H		-0.1440		2.3318		-0.6109		H		1		UNL1		0.1579
50		H		1.7658		0.8014		-0.2697		H		1		UNL1		0.1972
51		H		-2.8202		0.2212		0.6379		H		1		UNL1		0.1574
52		H		-6.6875		-1.0811		-0.6905		H		1		UNL1		0.1558
53		H		-5.6783		-3.1930		-1.5367		H		1		UNL1		0.1417
54		H		-3.2613		-3.6109		-1.2617		H		1		UNL1		0.1386
@<TRIPOS>BOND
1		41		8		1
2		40		8		1
3		8		42		1
4		8		4		1
5		36		5		1
6		53		29		1
7		54		30		1
8		5		4		ar
9		5		6		ar
10		29		30		ar
11		29		28		ar
12		4		3		ar
13		24		23		3
14		30		25		ar
15		23		20		1
16		52		28		1
17		49		21		1
18		28		27		ar
19		20		21		ar
20		20		19		ar
21		21		22		ar
22		48		19		1
23		19		18		ar
24		22		50		1
25		22		17		ar
26		25		6		1
27		25		26		ar
28		18		17		ar
29		18		47		1
30		17		16		1
31		6		1		ar
32		33		31		1
33		16		46		1
34		16		14		1
35		27		26		ar
36		27		31		1
37		14		15		ar
38		14		13		ar
39		3		9		1
40		3		2		ar
41		15		10		ar
42		26		51		1
43		43		9		1
44		13		12		ar
45		10		9		1
46		10		11		ar
47		12		11		ar
48		12		45		1
49		11		44		1
50		34		31		1
51		31		32		1
52		1		2		ar
53		1		35		1
54		2		7		1
55		37		7		1
56		7		38		1
57		7		39		1

