@<TRIPOS>MOLECULE
JKJ-2019-EJMC-11-4g
 42 45 0 0 0
SMALL
MULLIKEN_CHARGES
****
Gaussian 16 #p B3LYP/6-31G* opt
@<TRIPOS>ATOM
1		F		2.9674		0.2938		-2.1955		F		1		UNL1		-0.2524
2		C		1.8005		0.8571		-1.8385		C.3		1		UNL1		0.8623
3		F		1.8877		2.1837		-2.0796		F		1		UNL1		-0.2699
4		F		0.8342		0.3626		-2.6320		F		1		UNL1		-0.2559
5		C		1.4671		0.5946		-0.3344		C.3		1		UNL1		-0.0876
6		C		2.5458		1.1665		0.4817		C.1		1		UNL1		0.0709
7		C		3.4320		1.6540		1.1470		C.1		1		UNL1		0.0457
8		C		4.4858		2.2209		1.9433		C.3		1		UNL1		-0.2843
9		C		5.8557		2.4734		1.3242		C.3		1		UNL1		-0.2966
10		C		4.9783		3.6373		1.6685		C.3		1		UNL1		-0.2990
11		N		0.2123		1.2799		-0.0302		N.pl3		1		UNL1		-0.7018
12		C		-1.0160		0.6563		-0.1073		C.cat		1		UNL1		0.8173
13		N		-2.0721		1.5462		-0.1036		N.pl3		1		UNL1		-0.7914
14		C		-3.4527		1.3235		0.0493		C.ar		1		UNL1		0.3667
15		C		-4.2877		2.4524		-0.0140		C.ar		1		UNL1		-0.1981
16		C		-5.6625		2.3197		0.1451		C.ar		1		UNL1		-0.1314
17		C		-6.2394		1.0696		0.3738		C.ar		1		UNL1		-0.1307
18		C		-5.3955		-0.0369		0.4325		C.ar		1		UNL1		-0.0805
19		CL		-6.0953		-1.6286		0.7139		Cl		1		UNL1		-0.0266
20		C		-4.0153		0.0580		0.2716		C.ar		1		UNL1		-0.1497
21		N		-1.1822		-0.6252		-0.1606		N.2		1		UNL1		-0.6218
22		C		-0.0393		-1.4161		-0.0516		C.ar		1		UNL1		0.2897
23		C		-0.2080		-2.8014		0.1190		C.ar		1		UNL1		-0.1737
24		C		0.8825		-3.6522		0.2464		C.ar		1		UNL1		-0.1287
25		C		2.1721		-3.1183		0.2079		C.ar		1		UNL1		-0.0788
26		CL		3.5628		-4.1853		0.3684		Cl		1		UNL1		-0.0304
27		C		2.3748		-1.7526		0.0386		C.ar		1		UNL1		-0.1802
28		C		1.2743		-0.9058		-0.0952		C.ar		1		UNL1		0.0980
29		H		4.4858		1.9103		2.9860		H		1		UNL1		0.1823
30		H		5.9792		2.2155		0.2772		H		1		UNL1		0.1765
31		H		6.7200		2.2668		1.9484		H		1		UNL1		0.1679
32		H		4.5024		4.1777		0.8562		H		1		UNL1		0.1704
33		H		5.2305		4.2449		2.5327		H		1		UNL1		0.1659
34		H		0.2830		2.2410		0.2700		H		1		UNL1		0.3344
35		H		-1.8299		2.4985		-0.3388		H		1		UNL1		0.3308
36		H		-3.8550		3.4359		-0.1850		H		1		UNL1		0.1233
37		H		-6.2945		3.2017		0.0927		H		1		UNL1		0.1402
38		H		-7.3100		0.9552		0.4996		H		1		UNL1		0.1516
39		H		-3.3824		-0.8163		0.2979		H		1		UNL1		0.2057
40		H		-1.2202		-3.1914		0.1531		H		1		UNL1		0.1507
41		H		0.7392		-4.7194		0.3790		H		1		UNL1		0.1552
42		H		3.3807		-1.3496		0.0095		H		1		UNL1		0.1643
@<TRIPOS>BOND
1		4		2		1
2		1		2		1
3		3		2		1
4		2		5		1
5		35		13		1
6		5		28		1
7		5		11		1
8		5		6		1
9		36		15		1
10		21		12		2
11		21		22		1
12		12		13		1
13		12		11		1
14		13		14		1
15		28		22		ar
16		28		27		ar
17		22		23		ar
18		11		34		1
19		15		14		ar
20		15		16		ar
21		42		27		1
22		27		25		ar
23		14		20		ar
24		37		16		1
25		23		40		1
26		23		24		ar
27		16		17		ar
28		25		24		ar
29		25		26		1
30		24		41		1
31		20		39		1
32		20		18		ar
33		30		9		1
34		17		18		ar
35		17		38		1
36		18		19		1
37		6		7		3
38		32		10		1
39		7		8		1
40		9		10		1
41		9		8		1
42		9		31		1
43		10		8		1
44		10		33		1
45		8		29		1

