@<TRIPOS>MOLECULE
JKJ-2018-EJMC-726-3-4p
 54 57 0 0 0
SMALL
MULLIKEN_CHARGES

@<TRIPOS>ATOM
1		C		0.7846		-2.3049		-0.8829		C.ar		1		UNL1		-0.2713
2		C		-0.5399		-2.7441		-0.8681		C.ar		1		UNL1		0.1875
3		C		-1.3562		-2.3985		0.2264		C.ar		1		UNL1		0.1756
4		C		-0.8504		-1.6389		1.2987		C.ar		1		UNL1		0.2015
5		C		0.4764		-1.2044		1.2320		C.ar		1		UNL1		-0.2753
6		C		1.3137		-1.5239		0.1543		C.ar		1		UNL1		0.1280
7		C		-1.0874		-3.5621		-2.0142		C.3		1		UNL1		-0.5408
8		C		-1.6929		-1.3156		2.5067		C.3		1		UNL1		-0.5351
9		N		-2.6959		-2.8927		0.2627		N.pl3		1		UNL1		-0.7634
10		C		-3.8389		-2.1448		0.1191		C.ar		1		UNL1		0.5729
11		C		-5.1027		-2.7725		0.0777		C.ar		1		UNL1		-0.2266
12		C		-6.1953		-1.9337		-0.0622		C.ar		1		UNL1		0.0673
13		N		-6.1044		-0.6014		-0.1546		N.ar		1		UNL1		-0.5058
14		C		-4.8500		-0.1157		-0.1027		C.ar		1		UNL1		0.6900
15		N		-3.7151		-0.8125		0.0263		N.ar		1		UNL1		-0.5688
16		N		-4.7990		1.2619		-0.1975		N.pl3		1		UNL1		-0.7689
17		C		-3.7429		2.1703		-0.2075		C.ar		1		UNL1		0.3813
18		C		-4.0837		3.5393		-0.2195		C.ar		1		UNL1		-0.2040
19		C		-3.1053		4.5189		-0.2363		C.ar		1		UNL1		-0.1410
20		C		-1.7453		4.1603		-0.2423		C.ar		1		UNL1		0.1309
21		C		-1.4052		2.7975		-0.2355		C.ar		1		UNL1		-0.1597
22		C		-2.3817		1.8097		-0.2187		C.ar		1		UNL1		-0.1674
23		C		-0.7272		5.1651		-0.2534		C.1		1		UNL1		0.2251
24		N		0.1028		5.9817		-0.2597		N.1		1		UNL1		-0.4865
25		C		2.7223		-1.0571		0.1164		C.ar		1		UNL1		0.0941
26		C		3.0765		0.2152		0.5969		C.ar		1		UNL1		-0.1812
27		C		4.3967		0.6546		0.5647		C.ar		1		UNL1		-0.1657
28		C		5.3962		-0.1738		0.0488		C.ar		1		UNL1		-0.0042
29		C		5.0636		-1.4423		-0.4334		C.ar		1		UNL1		-0.1658
30		C		3.7421		-1.8765		-0.3975		C.ar		1		UNL1		-0.1781
31		C		6.8146		0.3175		-0.0410		C.3		1		UNL1		0.7832
32		F		7.7044		-0.6966		0.0566		F		1		UNL1		-0.2716
33		F		7.1034		1.2069		0.9347		F		1		UNL1		-0.2697
34		F		7.0576		0.9370		-1.2203		F		1		UNL1		-0.2606
35		H		1.4056		-2.5440		-1.7419		H		1		UNL1		0.1321
36		H		0.8790		-0.6404		2.0690		H		1		UNL1		0.1343
37		H		-2.0131		-3.1299		-2.4111		H		1		UNL1		0.1750
38		H		-1.3166		-4.5943		-1.7133		H		1		UNL1		0.1521
39		H		-0.3627		-3.6199		-2.8312		H		1		UNL1		0.1669
40		H		-2.2749		-2.1858		2.8290		H		1		UNL1		0.1603
41		H		-2.4076		-0.5155		2.2845		H		1		UNL1		0.1863
42		H		-1.0649		-0.9911		3.3416		H		1		UNL1		0.1556
43		H		-2.8135		-3.8853		0.1070		H		1		UNL1		0.3322
44		H		-5.2138		-3.8486		0.1578		H		1		UNL1		0.1336
45		H		-7.2027		-2.3449		-0.1019		H		1		UNL1		0.1497
46		H		-5.7288		1.6570		-0.2625		H		1		UNL1		0.3468
47		H		-5.1318		3.8297		-0.2122		H		1		UNL1		0.1369
48		H		-3.3861		5.5672		-0.2430		H		1		UNL1		0.1569
49		H		-0.3587		2.5091		-0.2470		H		1		UNL1		0.1556
50		H		-2.1056		0.7655		-0.2162		H		1		UNL1		0.1986
51		H		2.3060		0.8771		0.9810		H		1		UNL1		0.1454
52		H		4.6507		1.6413		0.9379		H		1		UNL1		0.1606
53		H		5.8405		-2.0941		-0.8195		H		1		UNL1		0.1549
54		H		3.5010		-2.8764		-0.7459		H		1		UNL1		0.1400
@<TRIPOS>BOND
1		39		7		1
2		37		7		1
3		7		38		1
4		7		2		1
5		35		1		1
6		34		31		1
7		1		2		ar
8		1		6		ar
9		2		3		ar
10		53		29		1
11		54		30		1
12		29		30		ar
13		29		28		ar
14		30		25		ar
15		46		16		1
16		24		23		3
17		23		20		1
18		49		21		1
19		48		19		1
20		20		19		ar
21		20		21		ar
22		19		18		ar
23		21		22		ar
24		18		47		1
25		18		17		ar
26		22		50		1
27		22		17		ar
28		17		16		1
29		16		14		1
30		13		14		ar
31		13		12		ar
32		14		15		ar
33		45		12		1
34		12		11		ar
35		31		28		1
36		31		32		1
37		31		33		1
38		15		10		ar
39		28		27		ar
40		11		10		ar
41		11		44		1
42		43		9		1
43		25		6		1
44		25		26		ar
45		10		9		1
46		6		5		ar
47		3		9		1
48		3		4		ar
49		27		26		ar
50		27		52		1
51		26		51		1
52		5		4		ar
53		5		36		1
54		4		8		1
55		41		8		1
56		8		40		1
57		8		42		1

