@<TRIPOS>MOLECULE
JKJ-2019-EJMC-11-4c
 46 49 0 0 0
SMALL
MULLIKEN_CHARGES
****
Gaussian 16 #p B3LYP/6-31G* opt
@<TRIPOS>ATOM
1		N		-7.6039		-0.0329		0.5525		N.am		1		UNL1		-0.7534
2		C		-6.6419		0.4356		-0.3160		C.2		1		UNL1		0.5291
3		O		-6.8629		1.3716		-1.0747		O.2		1		UNL1		-0.5016
4		C		-5.3265		-0.2833		-0.3045		C.ar		1		UNL1		0.0821
5		C		-5.1308		-1.5508		0.2645		C.ar		1		UNL1		-0.1885
6		C		-3.8795		-2.1536		0.2476		C.ar		1		UNL1		-0.1807
7		C		-2.7842		-1.5104		-0.3557		C.ar		1		UNL1		0.3534
8		N		-1.5505		-2.1743		-0.3677		N.pl3		1		UNL1		-0.7528
9		C		-0.2559		-1.6908		-0.3340		C.cat		1		UNL1		0.7556
10		N		0.6956		-2.5563		-0.4983		N.2		1		UNL1		-0.6203
11		C		1.9976		-2.0680		-0.4873		C.ar		1		UNL1		0.2879
12		C		3.0394		-2.9407		-0.8479		C.ar		1		UNL1		-0.1729
13		C		4.3609		-2.5135		-0.8819		C.ar		1		UNL1		-0.1275
14		C		4.6587		-1.1890		-0.5563		C.ar		1		UNL1		-0.0805
15		CL		6.3291		-0.6341		-0.6007		Cl		1		UNL1		-0.0325
16		C		3.6521		-0.2988		-0.1945		C.ar		1		UNL1		-0.1784
17		C		2.3288		-0.7364		-0.1594		C.ar		1		UNL1		0.0985
18		C		1.2100		0.1972		0.3058		C.3		1		UNL1		-0.1321
19		C		1.3667		1.5737		-0.1841		C.1		1		UNL1		0.1109
20		C		1.4845		2.7130		-0.5756		C.1		1		UNL1		0.0340
21		C		1.6303		4.0621		-1.0504		C.3		1		UNL1		-0.2830
22		C		0.7040		5.1590		-0.5388		C.3		1		UNL1		-0.2983
23		C		2.1401		5.1500		-0.1127		C.3		1		UNL1		-0.2974
24		C		1.1810		0.2409		1.8684		C.3		1		UNL1		0.8527
25		F		0.1230		0.9695		2.2970		F		1		UNL1		-0.2689
26		F		2.2950		0.7919		2.3753		F		1		UNL1		-0.2495
27		F		1.0512		-0.9954		2.3822		F		1		UNL1		-0.2557
28		N		-0.0778		-0.3386		-0.1524		N.pl3		1		UNL1		-0.6639
29		C		-2.9869		-0.2603		-0.9704		C.ar		1		UNL1		-0.2041
30		C		-4.2411		0.3392		-0.9319		C.ar		1		UNL1		-0.1729
31		H		-8.4292		0.5483		0.6228		H		1		UNL1		0.3416
32		H		-7.3308		-0.5156		1.3967		H		1		UNL1		0.3310
33		H		-5.9627		-2.0892		0.7098		H		1		UNL1		0.1393
34		H		-3.7381		-3.1286		0.7068		H		1		UNL1		0.1396
35		H		-1.5609		-3.1865		-0.3678		H		1		UNL1		0.3515
36		H		2.7792		-3.9621		-1.1067		H		1		UNL1		0.1435
37		H		5.1560		-3.1960		-1.1631		H		1		UNL1		0.1528
38		H		3.8943		0.7280		0.0550		H		1		UNL1		0.1647
39		H		1.9401		4.1472		-2.0899		H		1		UNL1		0.1814
40		H		0.3772		5.9014		-1.2611		H		1		UNL1		0.1658
41		H		-0.0485		4.8715		0.1888		H		1		UNL1		0.1711
42		H		2.3716		4.8552		0.9059		H		1		UNL1		0.1745
43		H		2.8166		5.8856		-0.5378		H		1		UNL1		0.1663
44		H		-0.8789		0.2052		0.1433		H		1		UNL1		0.3427
45		H		-2.1812		0.2151		-1.5193		H		1		UNL1		0.1711
46		H		-4.4083		1.2969		-1.4136		H		1		UNL1		0.1737
@<TRIPOS>BOND
1		39		21		1
2		45		29		1
3		46		30		1
4		40		22		1
5		37		13		1
6		36		12		1
7		3		2		2
8		21		20		1
9		21		22		1
10		21		23		1
11		29		30		ar
12		29		7		ar
13		30		4		ar
14		13		12		ar
15		13		14		ar
16		12		11		ar
17		15		14		1
18		20		19		3
19		14		16		ar
20		22		23		1
21		22		41		1
22		43		23		1
23		10		11		1
24		10		9		2
25		11		17		ar
26		35		8		1
27		8		7		1
28		8		9		1
29		7		6		ar
30		9		28		1
31		2		4		1
32		2		1		1
33		4		5		ar
34		16		17		ar
35		16		38		1
36		19		18		1
37		17		18		1
38		28		44		1
39		28		18		1
40		23		42		1
41		6		5		ar
42		6		34		1
43		5		33		1
44		18		24		1
45		1		31		1
46		1		32		1
47		24		25		1
48		24		26		1
49		24		27		1

