@<TRIPOS>MOLECULE
JKJ-2019-EJMC-11-4i
 42 45 0 0 0
SMALL
MULLIKEN_CHARGES
****
Gaussian 16 #p B3LYP/6-31G* opt
@<TRIPOS>ATOM
1		F		1.6755		2.1024		2.1266		F		1		UNL1		-0.2714
2		C		2.0726		0.8433		1.8289		C.3		1		UNL1		0.8569
3		F		1.2970		-0.0004		2.5324		F		1		UNL1		-0.2549
4		F		3.3401		0.6983		2.2482		F		1		UNL1		-0.2505
5		C		1.9333		0.5800		0.2945		C.3		1		UNL1		-0.1121
6		C		2.8028		1.5314		-0.4104		C.1		1		UNL1		0.0936
7		C		3.5130		2.3298		-0.9790		C.1		1		UNL1		0.0349
8		C		4.3606		3.2683		-1.6625		C.3		1		UNL1		-0.2838
9		C		4.3578		4.7388		-1.2607		C.3		1		UNL1		-0.2988
10		C		5.5488		3.8898		-0.9378		C.3		1		UNL1		-0.2969
11		N		0.5427		0.8199		-0.0895		N.pl3		1		UNL1		-0.6825
12		C		-0.4140		-0.1764		-0.0250		C.cat		1		UNL1		0.8217
13		N		-1.7063		0.3051		0.0062		N.pl3		1		UNL1		-0.7920
14		C		-2.9355		-0.3657		-0.1339		C.ar		1		UNL1		0.3682
15		C		-3.0646		-1.7511		-0.3152		C.ar		1		UNL1		-0.1424
16		C		-4.3373		-2.3035		-0.4535		C.ar		1		UNL1		-0.1471
17		C		-5.4913		-1.5207		-0.4114		C.ar		1		UNL1		-0.1490
18		C		-5.3404		-0.1489		-0.2258		C.ar		1		UNL1		0.0823
19		BR		-6.8928		0.9697		-0.1596		Br		1		UNL1		-0.1345
20		C		-4.0889		0.4368		-0.0888		C.ar		1		UNL1		-0.2288
21		N		-0.1420		-1.4415		-0.0401		N.2		1		UNL1		-0.6301
22		C		1.2016		-1.7973		-0.1402		C.ar		1		UNL1		0.2957
23		C		1.5146		-3.1471		-0.3786		C.ar		1		UNL1		-0.1734
24		C		2.8311		-3.5756		-0.4917		C.ar		1		UNL1		-0.1284
25		C		3.8645		-2.6449		-0.3690		C.ar		1		UNL1		-0.0790
26		CL		5.5370		-3.1749		-0.5106		Cl		1		UNL1		-0.0303
27		C		3.5907		-1.3015		-0.1327		C.ar		1		UNL1		-0.1803
28		C		2.2662		-0.8806		-0.0180		C.ar		1		UNL1		0.1018
29		H		4.5039		3.0641		-2.7215		H		1		UNL1		0.1822
30		H		3.6997		5.0283		-0.4474		H		1		UNL1		0.1703
31		H		4.4362		5.4665		-2.0631		H		1		UNL1		0.1659
32		H		6.4588		4.0235		-1.5154		H		1		UNL1		0.1676
33		H		5.7054		3.5966		0.0954		H		1		UNL1		0.1758
34		H		0.2628		1.7907		-0.1104		H		1		UNL1		0.3300
35		H		-1.7969		1.2958		0.1817		H		1		UNL1		0.3300
36		H		-2.1767		-2.3656		-0.3350		H		1		UNL1		0.1901
37		H		-4.4305		-3.3770		-0.5935		H		1		UNL1		0.1433
38		H		-6.4767		-1.9593		-0.5163		H		1		UNL1		0.1512
39		H		-4.0097		1.5114		0.0494		H		1		UNL1		0.1408
40		H		0.6944		-3.8512		-0.4760		H		1		UNL1		0.1448
41		H		3.0590		-4.6200		-0.6768		H		1		UNL1		0.1541
42		H		4.4003		-0.5865		-0.0411		H		1		UNL1		0.1648
@<TRIPOS>BOND
1		29		8		1
2		31		9		1
3		8		9		1
4		8		7		1
5		8		10		1
6		32		10		1
7		9		10		1
8		9		30		1
9		7		6		3
10		10		33		1
11		41		24		1
12		37		16		1
13		38		17		1
14		26		25		1
15		24		23		ar
16		24		25		ar
17		40		23		1
18		16		17		ar
19		16		15		ar
20		17		18		ar
21		6		5		1
22		23		22		ar
23		25		27		ar
24		36		15		1
25		15		14		ar
26		18		19		1
27		18		20		ar
28		22		21		1
29		22		28		ar
30		14		20		ar
31		14		13		1
32		27		42		1
33		27		28		ar
34		34		11		1
35		11		12		1
36		11		5		1
37		20		39		1
38		21		12		2
39		12		13		1
40		28		5		1
41		13		35		1
42		5		2		1
43		2		1		1
44		2		4		1
45		2		3		1

