@<TRIPOS>MOLECULE
JKJ-2018-EJMC-726-3-4v
 51 54 0 0 0
SMALL
MULLIKEN_CHARGES

@<TRIPOS>ATOM
1		C		1.6961		-2.0196		-0.8877		C.ar		1		UNL1		-0.2701
2		C		0.4312		-2.6089		-0.8672		C.ar		1		UNL1		0.1858
3		C		-0.4096		-2.3701		0.2370		C.ar		1		UNL1		0.1774
4		C		0.0131		-1.5630		1.3108		C.ar		1		UNL1		0.2015
5		C		1.2812		-0.9798		1.2395		C.ar		1		UNL1		-0.2739
6		C		2.1415		-1.1945		0.1542		C.ar		1		UNL1		0.1284
7		C		-0.0265		-3.4751		-2.0172		C.3		1		UNL1		-0.5403
8		C		-0.8527		-1.3469		2.5261		C.3		1		UNL1		-0.5356
9		N		-1.6786		-3.0235		0.2836		N.pl3		1		UNL1		-0.7647
10		C		-2.9076		-2.4226		0.1647		C.ar		1		UNL1		0.5734
11		C		-4.0842		-3.2025		0.1541		C.ar		1		UNL1		-0.2267
12		C		-5.2755		-2.5067		0.0382		C.ar		1		UNL1		0.0673
13		N		-5.3524		-1.1743		-0.0625		N.ar		1		UNL1		-0.5060
14		C		-4.1671		-0.5362		-0.0435		C.ar		1		UNL1		0.6902
15		N		-2.9516		-1.0854		0.0656		N.ar		1		UNL1		-0.5686
16		N		-4.2913		0.8355		-0.1518		N.pl3		1		UNL1		-0.7691
17		C		-3.3594		1.8687		-0.2221		C.ar		1		UNL1		0.3819
18		C		-3.8726		3.1819		-0.2733		C.ar		1		UNL1		-0.2044
19		C		-3.0278		4.2758		-0.3544		C.ar		1		UNL1		-0.1412
20		C		-1.6338		4.0919		-0.3871		C.ar		1		UNL1		0.1310
21		C		-1.1220		2.7847		-0.3381		C.ar		1		UNL1		-0.1594
22		C		-1.9640		1.6828		-0.2565		C.ar		1		UNL1		-0.1679
23		C		-0.7547		5.2175		-0.4697		C.1		1		UNL1		0.2258
24		N		-0.0406		6.1347		-0.5365		N.1		1		UNL1		-0.4860
25		C		3.4909		-0.5756		0.1140		C.ar		1		UNL1		0.0878
26		C		3.7030		0.7124		0.6332		C.ar		1		UNL1		-0.2533
27		C		4.9758		1.2664		0.5850		C.ar		1		UNL1		0.3961
28		C		6.0667		0.6006		0.0381		C.ar		1		UNL1		-0.2766
29		C		5.8298		-0.6714		-0.4688		C.ar		1		UNL1		0.3941
30		C		4.5776		-1.2708		-0.4427		C.ar		1		UNL1		-0.2510
31		F		6.8643		-1.3554		-0.9973		F		1		UNL1		-0.2959
32		F		5.1624		2.5050		1.0792		F		1		UNL1		-0.2922
33		H		2.3329		-2.1784		-1.7535		H		1		UNL1		0.1334
34		H		1.6233		-0.3798		2.0782		H		1		UNL1		0.1354
35		H		0.6876		-3.4314		-2.8443		H		1		UNL1		0.1671
36		H		-1.0049		-3.1578		-2.3954		H		1		UNL1		0.1749
37		H		-0.1196		-4.5315		-1.7277		H		1		UNL1		0.1524
38		H		-0.2662		-0.9339		3.3519		H		1		UNL1		0.1559
39		H		-1.3081		-2.2854		2.8608		H		1		UNL1		0.1602
40		H		-1.6720		-0.6532		2.3067		H		1		UNL1		0.1866
41		H		-1.6754		-4.0237		0.1334		H		1		UNL1		0.3325
42		H		-4.0587		-4.2835		0.2409		H		1		UNL1		0.1335
43		H		-6.2248		-3.0398		0.0255		H		1		UNL1		0.1495
44		H		-5.2648		1.1086		-0.2016		H		1		UNL1		0.3468
45		H		-4.9487		3.3370		-0.2473		H		1		UNL1		0.1366
46		H		-3.4397		5.2791		-0.3924		H		1		UNL1		0.1566
47		H		-0.0477		2.6315		-0.3677		H		1		UNL1		0.1566
48		H		-1.5582		0.6824		-0.2228		H		1		UNL1		0.1980
49		H		2.8897		1.2980		1.0463		H		1		UNL1		0.1534
50		H		7.0513		1.0512		0.0089		H		1		UNL1		0.1647
51		H		4.4679		-2.2790		-0.8254		H		1		UNL1		0.1485
@<TRIPOS>BOND
1		35		7		1
2		36		7		1
3		7		37		1
4		7		2		1
5		33		1		1
6		31		29		1
7		1		2		ar
8		1		6		ar
9		2		3		ar
10		51		30		1
11		24		23		3
12		23		20		1
13		29		30		ar
14		29		28		ar
15		30		25		ar
16		46		19		1
17		20		19		ar
18		20		21		ar
19		47		21		1
20		19		18		ar
21		21		22		ar
22		18		45		1
23		18		17		ar
24		22		48		1
25		22		17		ar
26		17		16		1
27		44		16		1
28		16		14		1
29		13		14		ar
30		13		12		ar
31		14		15		ar
32		50		28		1
33		43		12		1
34		28		27		ar
35		12		11		ar
36		15		10		ar
37		25		6		1
38		25		26		ar
39		41		9		1
40		11		10		ar
41		11		42		1
42		6		5		ar
43		10		9		1
44		3		9		1
45		3		4		ar
46		27		26		ar
47		27		32		1
48		26		49		1
49		5		4		ar
50		5		34		1
51		4		8		1
52		40		8		1
53		8		39		1
54		8		38		1

