@<TRIPOS>MOLECULE
JKJ-2019-EJMC-11-4x
 42 45 0 0 0
SMALL
MULLIKEN_CHARGES
****
Gaussian 16 #p B3LYP/6-31G* opt
@<TRIPOS>ATOM
1		F		7.2965		-0.7442		0.4393		F		1		UNL1		-0.2783
2		C		5.9691		-0.8988		0.3002		C.ar		1		UNL1		0.3865
3		C		5.4429		-2.1698		0.1058		C.ar		1		UNL1		-0.1964
4		C		4.0697		-2.3327		-0.0365		C.ar		1		UNL1		-0.2003
5		C		3.2076		-1.2242		0.0094		C.ar		1		UNL1		0.3706
6		N		1.8300		-1.4808		-0.1283		N.pl3		1		UNL1		-0.7945
7		C		0.7557		-0.6138		-0.1215		C.cat		1		UNL1		0.8194
8		N		0.8960		0.6713		-0.1661		N.2		1		UNL1		-0.6259
9		C		-0.2620		1.4386		-0.0451		C.ar		1		UNL1		0.2912
10		C		-0.1204		2.8256		0.1359		C.ar		1		UNL1		-0.1735
11		C		-1.2272		3.6531		0.2757		C.ar		1		UNL1		-0.1287
12		C		-2.5059		3.0936		0.2393		C.ar		1		UNL1		-0.0787
13		CL		-3.9169		4.1307		0.4155		Cl		1		UNL1		-0.0294
14		C		-2.6818		1.7254		0.0600		C.ar		1		UNL1		-0.1803
15		C		-1.5651		0.9022		-0.0861		C.ar		1		UNL1		0.0977
16		C		-1.7288		-0.5999		-0.3366		C.3		1		UNL1		-0.0873
17		C		-2.7922		-1.1998		0.4793		C.1		1		UNL1		0.0702
18		C		-3.6659		-1.7103		1.1439		C.1		1		UNL1		0.0462
19		C		-4.7050		-2.3048		1.9394		C.3		1		UNL1		-0.2846
20		C		-5.1669		-3.7301		1.6577		C.3		1		UNL1		-0.2990
21		C		-6.0705		-2.5839		1.3221		C.3		1		UNL1		-0.2965
22		C		-2.0631		-0.8571		-1.8414		C.3		1		UNL1		0.8626
23		F		-1.1094		-0.3378		-2.6345		F		1		UNL1		-0.2561
24		F		-3.2419		-0.3134		-2.1894		F		1		UNL1		-0.2521
25		F		-2.1256		-2.1830		-2.0926		F		1		UNL1		-0.2697
26		N		-0.4591		-1.2626		-0.0433		N.pl3		1		UNL1		-0.7029
27		C		3.7447		0.0574		0.1983		C.ar		1		UNL1		-0.1530
28		C		5.1221		0.2071		0.3467		C.ar		1		UNL1		-0.1627
29		CL		5.8037		1.7990		0.5845		Cl		1		UNL1		0.0061
30		H		6.1177		-3.0186		0.0713		H		1		UNL1		0.1557
31		H		3.6641		-3.3315		-0.1804		H		1		UNL1		0.1317
32		H		1.6076		-2.4370		-0.3668		H		1		UNL1		0.3312
33		H		0.8838		3.2362		0.1682		H		1		UNL1		0.1499
34		H		-1.1047		4.7218		0.4161		H		1		UNL1		0.1556
35		H		-3.6794		1.3023		0.0327		H		1		UNL1		0.1646
36		H		-4.7094		-2.0001		2.9839		H		1		UNL1		0.1825
37		H		-5.4034		-4.3481		2.5189		H		1		UNL1		0.1662
38		H		-4.6814		-4.2553		0.8410		H		1		UNL1		0.1704
39		H		-6.9375		-2.3999		1.9496		H		1		UNL1		0.1683
40		H		-6.2024		-2.3231		0.2769		H		1		UNL1		0.1766
41		H		-0.5098		-2.2253		0.2562		H		1		UNL1		0.3345
42		H		3.0907		0.9170		0.2119		H		1		UNL1		0.2124
@<TRIPOS>BOND
1		23		22		1
2		24		22		1
3		25		22		1
4		22		16		1
5		32		6		1
6		16		15		1
7		16		26		1
8		16		17		1
9		31		4		1
10		8		7		2
11		8		9		1
12		6		7		1
13		6		5		1
14		7		26		1
15		15		9		ar
16		15		14		ar
17		9		10		ar
18		26		41		1
19		4		5		ar
20		4		3		ar
21		5		27		ar
22		35		14		1
23		14		12		ar
24		30		3		1
25		3		2		ar
26		10		33		1
27		10		11		ar
28		27		42		1
29		27		28		ar
30		12		11		ar
31		12		13		1
32		11		34		1
33		40		21		1
34		2		28		ar
35		2		1		1
36		28		29		1
37		17		18		3
38		38		20		1
39		18		19		1
40		21		20		1
41		21		19		1
42		21		39		1
43		20		19		1
44		20		37		1
45		19		36		1

