@<TRIPOS>MOLECULE
JKJ-2019-EJMC-11-4o
 46 49 0 0 0
SMALL
MULLIKEN_CHARGES
****
Gaussian 16 #p B3LYP/6-31G* opt
@<TRIPOS>ATOM
1		C		8.2153		-0.8851		-0.4203		C.3		1		UNL1		-0.2144
2		O		6.8805		-1.3058		-0.1890		O.3		1		UNL1		-0.5135
3		C		5.8827		-0.3810		-0.3200		C.ar		1		UNL1		0.3839
4		C		6.0771		0.9597		-0.6708		C.ar		1		UNL1		-0.1974
5		C		4.9594		1.7922		-0.7664		C.ar		1		UNL1		-0.1524
6		C		3.6664		1.3373		-0.5256		C.ar		1		UNL1		-0.1530
7		C		3.4837		-0.0117		-0.1782		C.ar		1		UNL1		0.3715
8		N		2.2275		-0.5985		0.0823		N.pl3		1		UNL1		-0.7932
9		C		0.9598		-0.0644		0.0437		C.cat		1		UNL1		0.8184
10		N		0.7375		1.2013		-0.1188		N.2		1		UNL1		-0.6294
11		C		-0.5924		1.6042		-0.1974		C.ar		1		UNL1		0.2968
12		C		-0.8633		2.9285		-0.5864		C.ar		1		UNL1		-0.1742
13		C		-2.1651		3.4029		-0.6850		C.ar		1		UNL1		-0.1285
14		C		-3.2277		2.5456		-0.3937		C.ar		1		UNL1		-0.0798
15		CL		-4.8832		3.1345		-0.5154		Cl		1		UNL1		-0.0347
16		C		-2.9970		1.2299		-0.0055		C.ar		1		UNL1		-0.1824
17		C		-1.6868		0.7621		0.0912		C.ar		1		UNL1		0.1003
18		C		-1.3975		-0.6644		0.5623		C.3		1		UNL1		-0.1163
19		C		-2.3457		-1.6481		0.0214		C.1		1		UNL1		0.0966
20		C		-3.1183		-2.4687		-0.4201		C.1		1		UNL1		0.0325
21		C		-4.0392		-3.4367		-0.9506		C.3		1		UNL1		-0.2844
22		C		-3.9991		-3.7986		-2.4310		C.3		1		UNL1		-0.2982
23		C		-5.1467		-2.9955		-1.9004		C.3		1		UNL1		-0.2968
24		C		-1.4617		-0.7359		2.1220		C.3		1		UNL1		0.8565
25		F		-0.6136		0.1475		2.6782		F		1		UNL1		-0.2552
26		F		-2.6962		-0.4821		2.5851		F		1		UNL1		-0.2503
27		F		-1.0999		-1.9683		2.5497		F		1		UNL1		-0.2714
28		N		-0.0427		-1.0160		0.1378		N.pl3		1		UNL1		-0.6789
29		C		4.5922		-0.8600		-0.0774		C.ar		1		UNL1		-0.2691
30		H		8.3531		-0.5233		-1.4478		H		1		UNL1		0.1527
31		H		8.5184		-0.0974		0.2820		H		1		UNL1		0.1533
32		H		8.8385		-1.7675		-0.2626		H		1		UNL1		0.1686
33		H		7.0670		1.3554		-0.8638		H		1		UNL1		0.1286
34		H		5.1039		2.8355		-1.0349		H		1		UNL1		0.1324
35		H		2.8113		1.9930		-0.5900		H		1		UNL1		0.1805
36		H		2.2820		-1.5703		0.3524		H		1		UNL1		0.3280
37		H		-0.0211		3.5749		-0.8121		H		1		UNL1		0.1444
38		H		-2.3594		4.4266		-0.9874		H		1		UNL1		0.1523
39		H		-3.8289		0.5720		0.2190		H		1		UNL1		0.1638
40		H		-4.2926		-4.2465		-0.2696		H		1		UNL1		0.1785
41		H		-3.2593		-3.2927		-3.0433		H		1		UNL1		0.1736
42		H		-4.1641		-4.8416		-2.6856		H		1		UNL1		0.1641
43		H		-6.1128		-3.4777		-1.7836		H		1		UNL1		0.1657
44		H		-5.1928		-1.9400		-2.1490		H		1		UNL1		0.1775
45		H		0.2018		-1.9886		0.2652		H		1		UNL1		0.3284
46		H		4.4779		-1.9082		0.1883		H		1		UNL1		0.1247
@<TRIPOS>BOND
1		41		22		1
2		42		22		1
3		22		23		1
4		22		21		1
5		44		23		1
6		23		43		1
7		23		21		1
8		30		1		1
9		34		5		1
10		38		13		1
11		21		20		1
12		21		40		1
13		33		4		1
14		37		12		1
15		5		4		ar
16		5		6		ar
17		13		12		ar
18		13		14		ar
19		4		3		ar
20		35		6		1
21		12		11		ar
22		6		7		ar
23		15		14		1
24		1		32		1
25		1		2		1
26		1		31		1
27		20		19		3
28		14		16		ar
29		3		2		1
30		3		29		ar
31		11		10		1
32		11		17		ar
33		7		29		ar
34		7		8		1
35		10		9		2
36		29		46		1
37		16		17		ar
38		16		39		1
39		19		18		1
40		9		8		1
41		9		28		1
42		8		36		1
43		17		18		1
44		28		45		1
45		28		18		1
46		18		24		1
47		24		27		1
48		24		26		1
49		24		25		1

