@<TRIPOS>MOLECULE
LJ-2007-EJMC-198-18
 52 55 0 0 0
SMALL
MULLIKEN_CHARGES
****
Gaussian 16 #p B3LYP/6-31G* opt
@<TRIPOS>ATOM
1		C		-0.9922		4.0265		-0.9090		C.3		1		UNL1		-0.4510
2		C		-0.1884		2.9242		-1.6210		C.3		1		UNL1		-0.3312
3		C		0.8421		2.2556		-0.7397		C.ar		1		UNL1		0.0251
4		C		0.7355		0.9921		-0.2440		C.ar		1		UNL1		0.2224
5		C		-0.4587		0.1138		-0.6298		C.2		1		UNL1		0.3186
6		O		-0.3271		-0.5849		-1.6269		O.2		1		UNL1		-0.4607
7		C		-1.6854		0.1772		0.2081		C.ar		1		UNL1		0.0597
8		C		-1.6418		0.9537		1.3626		C.ar		1		UNL1		-0.1959
9		C		-2.7402		1.0572		2.2367		C.ar		1		UNL1		-0.1369
10		C		-3.9019		0.3801		1.9478		C.ar		1		UNL1		-0.1722
11		C		-4.0122		-0.4239		0.7832		C.ar		1		UNL1		0.1333
12		C		-5.2230		-1.1106		0.5020		C.ar		1		UNL1		-0.1952
13		C		-5.3464		-1.8924		-0.6226		C.ar		1		UNL1		-0.1260
14		C		-4.2539		-2.0129		-1.5092		C.ar		1		UNL1		-0.1348
15		C		-3.0615		-1.3615		-1.2677		C.ar		1		UNL1		-0.1899
16		C		-2.8962		-0.5448		-0.1155		C.ar		1		UNL1		0.0695
17		N		1.7077		0.3973		0.5551		N.ar		1		UNL1		-0.5381
18		C		1.6111		-1.0109		1.0036		C.3		1		UNL1		-0.1838
19		C		2.1724		-2.0359		0.0113		C.3		1		UNL1		-0.0928
20		C		3.6905		-1.9826		-0.2461		C.3		1		UNL1		-0.2723
21		C		3.9704		-3.3411		-0.9089		C.3		1		UNL1		-0.2702
22		C		3.0705		-4.3426		-0.1409		C.3		1		UNL1		-0.2722
23		C		1.9399		-3.4874		0.5035		C.3		1		UNL1		-0.2822
24		C		2.8542		1.0975		0.9467		C.ar		1		UNL1		0.7946
25		O		3.7106		0.6299		1.6810		O.2		1		UNL1		-0.5221
26		N		2.9356		2.3797		0.4356		N.ar		1		UNL1		-0.7038
27		C		2.0343		3.0385		-0.4115		C.ar		1		UNL1		0.6031
28		O		2.2715		4.1740		-0.8019		O.2		1		UNL1		-0.5118
29		H		-1.6892		4.5012		-1.6088		H		1		UNL1		0.1460
30		H		-0.3211		4.7980		-0.5216		H		1		UNL1		0.1758
31		H		-1.5762		3.6194		-0.0761		H		1		UNL1		0.1384
32		H		-0.8686		2.1762		-2.0408		H		1		UNL1		0.1500
33		H		0.3442		3.3738		-2.4673		H		1		UNL1		0.1715
34		H		-0.7360		1.4999		1.6018		H		1		UNL1		0.1627
35		H		-2.6627		1.6713		3.1286		H		1		UNL1		0.1479
36		H		-4.7601		0.4521		2.6118		H		1		UNL1		0.1465
37		H		-6.0528		-1.0036		1.1964		H		1		UNL1		0.1380
38		H		-6.2765		-2.4137		-0.8306		H		1		UNL1		0.1395
39		H		-4.3516		-2.6293		-2.3988		H		1		UNL1		0.1413
40		H		-2.2353		-1.4677		-1.9551		H		1		UNL1		0.1872
41		H		2.1525		-1.0653		1.9501		H		1		UNL1		0.1899
42		H		0.5572		-1.2194		1.2093		H		1		UNL1		0.1570
43		H		1.6569		-1.9023		-0.9479		H		1		UNL1		0.1600
44		H		3.9924		-1.1335		-0.8688		H		1		UNL1		0.1370
45		H		4.2296		-1.8950		0.7052		H		1		UNL1		0.1533
46		H		5.0298		-3.6179		-0.8841		H		1		UNL1		0.1357
47		H		3.6731		-3.3014		-1.9648		H		1		UNL1		0.1362
48		H		2.6711		-5.1173		-0.8037		H		1		UNL1		0.1373
49		H		3.6444		-4.8601		0.6358		H		1		UNL1		0.1386
50		H		2.0143		-3.5252		1.5987		H		1		UNL1		0.1337
51		H		0.9380		-3.8461		0.2437		H		1		UNL1		0.1403
52		H		3.7678		2.8965		0.6973		H		1		UNL1		0.3530
@<TRIPOS>BOND
1		33		2		1
2		39		14		1
3		32		2		1
4		47		21		1
5		40		15		1
6		6		5		2
7		2		1		1
8		2		3		1
9		29		1		1
10		14		15		ar
11		14		13		ar
12		15		16		ar
13		43		19		1
14		1		30		1
15		1		31		1
16		21		46		1
17		21		20		1
18		21		22		1
19		44		20		1
20		38		13		1
21		48		22		1
22		28		27		2
23		3		27		ar
24		3		4		ar
25		5		4		1
26		5		7		1
27		13		12		ar
28		27		26		ar
29		20		19		1
30		20		45		1
31		4		17		ar
32		22		23		1
33		22		49		1
34		16		7		ar
35		16		11		ar
36		19		23		1
37		19		18		1
38		7		8		ar
39		51		23		1
40		26		52		1
41		26		24		ar
42		12		11		ar
43		12		37		1
44		23		50		1
45		17		24		ar
46		17		18		1
47		11		10		ar
48		24		25		2
49		18		42		1
50		18		41		1
51		8		34		1
52		8		9		ar
53		10		9		ar
54		10		36		1
55		9		35		1

