@<TRIPOS>MOLECULE
LJ-2007-JMC-1778-3Q
 41 42 0 0 0
SMALL
MULLIKEN_CHARGES
****
Gaussian 16 #p B3LYP/6-31G* opt
@<TRIPOS>ATOM
1		C		2.5189		2.5304		-0.8199		C.3		1		UNL1		-0.4549
2		C		1.7178		2.2785		0.4721		C.3		1		UNL1		-0.3316
3		C		0.3650		1.6610		0.2167		C.ar		1		UNL1		0.0682
4		C		0.0002		0.3620		0.4665		C.ar		1		UNL1		0.2308
5		C		0.9424		-0.6913		1.0792		C.3		1		UNL1		-0.3050
6		C		1.3409		-0.3162		2.4440		C.1		1		UNL1		0.3682
7		N		1.6465		-0.0375		3.5289		N.1		1		UNL1		-0.4895
8		C		2.1305		-1.0694		0.1818		C.ar		1		UNL1		0.1571
9		C		3.4505		-1.0668		0.6396		C.ar		1		UNL1		-0.1864
10		C		4.4917		-1.4509		-0.2097		C.ar		1		UNL1		-0.1346
11		C		4.2234		-1.8429		-1.5202		C.ar		1		UNL1		-0.1227
12		C		2.9041		-1.8531		-1.9803		C.ar		1		UNL1		-0.1344
13		C		1.8645		-1.4703		-1.1348		C.ar		1		UNL1		-0.1696
14		N		-1.2446		-0.1695		0.1881		N.ar		1		UNL1		-0.5330
15		C		-2.1453		0.6220		-0.3196		C.ar		1		UNL1		0.3405
16		S		-3.7885		0.1109		-0.7558		S.3		1		UNL1		0.1355
17		C		-3.9979		-1.6073		-0.0629		C.3		1		UNL1		-0.2386
18		C		-3.1404		-2.6483		-0.7862		C.3		1		UNL1		-0.4455
19		C		-3.8709		-1.6493		1.4614		C.3		1		UNL1		-0.4470
20		N		-1.8895		1.9353		-0.5788		N.ar		1		UNL1		-0.6500
21		C		-0.6409		2.5558		-0.3513		C.ar		1		UNL1		0.5868
22		O		-0.4995		3.7418		-0.6182		O.2		1		UNL1		-0.5161
23		H		2.7238		1.5937		-1.3482		H		1		UNL1		0.1546
24		H		1.9682		3.1986		-1.4875		H		1		UNL1		0.1724
25		H		3.4779		3.0028		-0.5800		H		1		UNL1		0.1464
26		H		2.3019		1.6574		1.1546		H		1		UNL1		0.1526
27		H		1.5552		3.2389		0.9752		H		1		UNL1		0.1718
28		H		0.3147		-1.5844		1.1891		H		1		UNL1		0.2203
29		H		3.6705		-0.7668		1.6600		H		1		UNL1		0.1585
30		H		5.5135		-1.4410		0.1596		H		1		UNL1		0.1400
31		H		5.0342		-2.1402		-2.1795		H		1		UNL1		0.1360
32		H		2.6832		-2.1603		-2.9989		H		1		UNL1		0.1370
33		H		0.8401		-1.4807		-1.4980		H		1		UNL1		0.1438
34		H		-5.0497		-1.7669		-0.3336		H		1		UNL1		0.1790
35		H		-2.0800		-2.4854		-0.5841		H		1		UNL1		0.1857
36		H		-3.3032		-2.6155		-1.8677		H		1		UNL1		0.1594
37		H		-3.4132		-3.6493		-0.4293		H		1		UNL1		0.1527
38		H		-2.8481		-1.4310		1.7755		H		1		UNL1		0.1857
39		H		-4.5469		-0.9328		1.9374		H		1		UNL1		0.1626
40		H		-4.1329		-2.6541		1.8153		H		1		UNL1		0.1543
41		H		-2.6111		2.5471		-0.9481		H		1		UNL1		0.3588
@<TRIPOS>BOND
1		32		12		1
2		31		11		1
3		12		11		ar
4		12		13		ar
5		36		18		1
6		11		10		ar
7		33		13		1
8		24		1		1
9		23		1		1
10		13		8		ar
11		41		20		1
12		1		25		1
13		1		2		1
14		18		35		1
15		18		37		1
16		18		17		1
17		16		15		1
18		16		17		1
19		22		21		2
20		20		21		ar
21		20		15		ar
22		21		3		ar
23		34		17		1
24		15		14		ar
25		10		30		1
26		10		9		ar
27		17		19		1
28		8		9		ar
29		8		5		1
30		14		4		ar
31		3		4		ar
32		3		2		1
33		4		5		1
34		2		27		1
35		2		26		1
36		9		29		1
37		5		28		1
38		5		6		1
39		19		38		1
40		19		40		1
41		19		39		1
42		6		7		3

