@<TRIPOS>MOLECULE
LJ-2007-JMC-1778-4H
 45 47 0 0 0
SMALL
MULLIKEN_CHARGES
****
Gaussian 16 #p B3LYP/6-31G* opt
@<TRIPOS>ATOM
1		C		2.1175		4.0922		-0.8720		C.3		1		UNL1		-0.4500
2		C		1.7180		3.3156		0.3964		C.3		1		UNL1		-0.3174
3		C		1.9803		1.8354		0.2773		C.ar		1		UNL1		0.0543
4		C		1.0463		0.8712		-0.0084		C.ar		1		UNL1		0.1235
5		C		-0.4005		1.2316		-0.3159		C.2		1		UNL1		0.3600
6		O		-0.6156		2.0774		-1.1752		O.2		1		UNL1		-0.4596
7		C		-1.4808		0.5344		0.4411		C.ar		1		UNL1		0.0561
8		C		-1.1728		0.0395		1.7012		C.ar		1		UNL1		-0.1823
9		C		-2.1483		-0.5586		2.5241		C.ar		1		UNL1		-0.1392
10		C		-3.4399		-0.6825		2.0686		C.ar		1		UNL1		-0.1772
11		C		-3.8102		-0.2100		0.7819		C.ar		1		UNL1		0.1321
12		C		-5.1441		-0.3569		0.3160		C.ar		1		UNL1		-0.1967
13		C		-5.5107		0.0952		-0.9298		C.ar		1		UNL1		-0.1277
14		C		-4.5484		0.7143		-1.7596		C.ar		1		UNL1		-0.1378
15		C		-3.2458		0.8784		-1.3384		C.ar		1		UNL1		-0.1826
16		C		-2.8298		0.4238		-0.0563		C.ar		1		UNL1		0.0713
17		N		1.3108		-0.4803		-0.1251		N.ar		1		UNL1		-0.5011
18		C		2.5446		-0.8636		0.0196		C.ar		1		UNL1		0.3365
19		S		3.0856		-2.5486		-0.1276		S.3		1		UNL1		0.1284
20		C		1.5935		-3.5190		-0.6843		C.3		1		UNL1		-0.2373
21		C		0.5024		-3.5970		0.3859		C.3		1		UNL1		-0.4500
22		C		1.0808		-3.0806		-2.0579		C.3		1		UNL1		-0.4461
23		N		3.5490		0.0148		0.3139		N.ar		1		UNL1		-0.6516
24		C		3.3630		1.4054		0.4759		C.ar		1		UNL1		0.5866
25		O		4.3202		2.1172		0.7508		O.2		1		UNL1		-0.5186
26		H		1.9487		5.1653		-0.7273		H		1		UNL1		0.1427
27		H		3.1778		3.9436		-1.0988		H		1		UNL1		0.1624
28		H		1.5184		3.7589		-1.7242		H		1		UNL1		0.1673
29		H		0.6620		3.4958		0.6144		H		1		UNL1		0.1483
30		H		2.3046		3.6909		1.2428		H		1		UNL1		0.1615
31		H		-0.1580		0.1294		2.0736		H		1		UNL1		0.1493
32		H		-1.8727		-0.9184		3.5111		H		1		UNL1		0.1391
33		H		-4.2016		-1.1468		2.6907		H		1		UNL1		0.1387
34		H		-5.8705		-0.8385		0.9663		H		1		UNL1		0.1325
35		H		-6.5333		-0.0222		-1.2778		H		1		UNL1		0.1339
36		H		-4.8393		1.0699		-2.7444		H		1		UNL1		0.1360
37		H		-2.5268		1.3705		-1.9781		H		1		UNL1		0.1766
38		H		2.0662		-4.5052		-0.7812		H		1		UNL1		0.1757
39		H		0.0390		-2.6212		0.5434		H		1		UNL1		0.1981
40		H		-0.2734		-4.2989		0.0548		H		1		UNL1		0.1505
41		H		0.9044		-3.9580		1.3376		H		1		UNL1		0.1547
42		H		1.8811		-3.0902		-2.8039		H		1		UNL1		0.1586
43		H		0.6509		-2.0781		-2.0112		H		1		UNL1		0.1915
44		H		0.2984		-3.7764		-2.3858		H		1		UNL1		0.1520
45		H		4.5073		-0.3038		0.4203		H		1		UNL1		0.3569
@<TRIPOS>BOND
1		42		22		1
2		36		14		1
3		44		22		1
4		22		43		1
5		22		20		1
6		37		15		1
7		14		15		ar
8		14		13		ar
9		28		1		1
10		15		16		ar
11		35		13		1
12		6		5		2
13		27		1		1
14		13		12		ar
15		1		26		1
16		1		2		1
17		38		20		1
18		20		19		1
19		20		21		1
20		5		4		1
21		5		7		1
22		19		18		1
23		17		4		ar
24		17		18		ar
25		16		7		ar
26		16		11		ar
27		4		3		ar
28		18		23		ar
29		40		21		1
30		3		2		1
31		3		24		ar
32		23		45		1
33		23		24		ar
34		12		11		ar
35		12		34		1
36		21		39		1
37		21		41		1
38		2		29		1
39		2		30		1
40		7		8		ar
41		24		25		2
42		11		10		ar
43		8		31		1
44		8		9		ar
45		10		9		ar
46		10		33		1
47		9		32		1

