@<TRIPOS>MOLECULE
LJ-2007-JMC-1778-3S
 47 49 0 0 0
SMALL
MULLIKEN_CHARGES
****
Gaussian 16 #p B3LYP/6-31G* opt
@<TRIPOS>ATOM
1		C		-3.1966		-3.8986		-0.5037		C.3		1		UNL1		-0.4583
2		C		-3.1807		-2.4190		-0.9376		C.3		1		UNL1		-0.3402
3		C		-1.8765		-1.7315		-0.6172		C.ar		1		UNL1		0.0666
4		C		-1.6296		-0.8524		0.4101		C.ar		1		UNL1		0.2320
5		C		-2.6910		-0.3540		1.4207		C.3		1		UNL1		-0.3163
6		C		-3.0391		-1.4541		2.3333		C.1		1		UNL1		0.3858
7		N		-3.3028		-2.3308		3.0472		N.1		1		UNL1		-0.4916
8		C		-3.9359		0.3370		0.8504		C.ar		1		UNL1		0.1725
9		C		-5.2229		-0.1824		1.0460		C.ar		1		UNL1		-0.1835
10		C		-6.3620		0.4548		0.5603		C.ar		1		UNL1		-0.1320
11		C		-6.2194		1.6511		-0.1377		C.ar		1		UNL1		-0.0587
12		CL		-7.6352		2.4728		-0.7638		Cl		1		UNL1		0.0018
13		C		-4.9620		2.2139		-0.3398		C.ar		1		UNL1		-0.1321
14		C		-3.8389		1.5559		0.1604		C.ar		1		UNL1		-0.1230
15		CL		-2.2830		2.3327		-0.0817		Cl		1		UNL1		0.0163
16		N		-0.3878		-0.3400		0.7084		N.ar		1		UNL1		-0.5111
17		C		0.6111		-0.6659		-0.0542		C.ar		1		UNL1		0.3321
18		S		2.1831		0.0340		0.3914		S.3		1		UNL1		0.2355
19		C		3.3547		-0.7304		-0.8250		C.3		1		UNL1		-0.5501
20		C		4.7494		-0.2477		-0.5087		C.ar		1		UNL1		0.1585
21		C		5.5501		-0.9448		0.4074		C.ar		1		UNL1		-0.1702
22		C		6.8346		-0.5028		0.7095		C.ar		1		UNL1		-0.1467
23		C		7.3067		0.6499		0.0862		C.ar		1		UNL1		0.2765
24		N		8.6677		1.1226		0.3965		N.pl3		1		UNL1		0.3830
25		O		9.3278		0.4674		1.2012		O.2		1		UNL1		-0.3884
26		O		9.0584		2.1426		-0.1689		O.2		1		UNL1		-0.3888
27		C		6.5346		1.3685		-0.8232		C.ar		1		UNL1		-0.1465
28		C		5.2523		0.9124		-1.1143		C.ar		1		UNL1		-0.1716
29		N		0.4693		-1.4841		-1.1307		N.ar		1		UNL1		-0.6525
30		C		-0.7609		-2.0866		-1.4908		C.ar		1		UNL1		0.5880
31		O		-0.7978		-2.8238		-2.4671		O.2		1		UNL1		-0.5165
32		H		-4.1476		-4.3616		-0.7892		H		1		UNL1		0.1483
33		H		-3.0830		-3.9955		0.5807		H		1		UNL1		0.1659
34		H		-2.3908		-4.4518		-0.9943		H		1		UNL1		0.1708
35		H		-4.0173		-1.8912		-0.4775		H		1		UNL1		0.1485
36		H		-3.3273		-2.3706		-2.0228		H		1		UNL1		0.1713
37		H		-2.1470		0.3842		2.0225		H		1		UNL1		0.2403
38		H		-5.3375		-1.1098		1.5986		H		1		UNL1		0.1789
39		H		-7.3451		0.0282		0.7248		H		1		UNL1		0.1702
40		H		-4.8522		3.1523		-0.8696		H		1		UNL1		0.1825
41		H		3.0723		-0.4305		-1.8392		H		1		UNL1		0.1976
42		H		3.2995		-1.8200		-0.7387		H		1		UNL1		0.2015
43		H		5.1664		-1.8410		0.8869		H		1		UNL1		0.1579
44		H		7.4690		-1.0311		1.4103		H		1		UNL1		0.1926
45		H		6.9413		2.2595		-1.2850		H		1		UNL1		0.1921
46		H		4.6370		1.4625		-1.8210		H		1		UNL1		0.1560
47		H		1.2425		-1.7253		-1.7393		H		1		UNL1		0.3555
@<TRIPOS>BOND
1		31		30		2
2		36		2		1
3		41		19		1
4		46		28		1
5		47		29		1
6		30		29		ar
7		30		3		ar
8		45		27		1
9		29		17		ar
10		28		27		ar
11		28		20		ar
12		34		1		1
13		2		3		1
14		2		1		1
15		2		35		1
16		40		13		1
17		19		42		1
18		19		20		1
19		19		18		1
20		27		23		ar
21		32		1		1
22		12		11		1
23		3		4		ar
24		20		21		ar
25		1		33		1
26		13		11		ar
27		13		14		ar
28		26		24		2
29		11		10		ar
30		15		14		1
31		17		18		1
32		17		16		ar
33		23		24		1
34		23		22		ar
35		14		8		ar
36		24		25		2
37		21		22		ar
38		21		43		1
39		4		16		ar
40		4		5		1
41		10		39		1
42		10		9		ar
43		22		44		1
44		8		9		ar
45		8		5		1
46		9		38		1
47		5		37		1
48		5		6		1
49		6		7		3

