@<TRIPOS>MOLECULE
LJ-2006-CPB-1249-28
 46 48 0 0 0
SMALL
MULLIKEN_CHARGES
****
Gaussian 16 #p B3LYP/6-31G* opt
@<TRIPOS>ATOM
1		C		-0.2269		3.9434		-0.4652		C.3		1		UNL1		-0.2115
2		O		0.3730		2.7937		0.1143		O.3		1		UNL1		-0.4667
3		C		1.6665		2.5385		-0.3917		C.3		1		UNL1		0.0804
4		N		1.9951		1.1561		-0.0650		N.ar		1		UNL1		-0.5602
5		C		1.1667		0.1071		-0.4820		C.ar		1		UNL1		0.2287
6		C		-0.0045		0.5334		-1.3648		C.2		1		UNL1		0.3291
7		O		0.2892		1.0308		-2.4459		O.2		1		UNL1		-0.4629
8		C		-1.4309		0.2582		-1.0054		C.ar		1		UNL1		0.0116
9		C		-2.2747		0.1105		-2.0999		C.ar		1		UNL1		-0.1625
10		C		-3.6306		-0.2337		-1.9506		C.ar		1		UNL1		-0.1372
11		C		-4.1479		-0.4291		-0.6905		C.ar		1		UNL1		-0.1760
12		C		-3.3430		-0.2548		0.4651		C.ar		1		UNL1		0.1293
13		C		-3.9010		-0.4232		1.7612		C.ar		1		UNL1		-0.1942
14		C		-3.1445		-0.2165		2.8900		C.ar		1		UNL1		-0.1282
15		C		-1.7968		0.1895		2.7608		C.ar		1		UNL1		-0.1427
16		C		-1.2217		0.3559		1.5192		C.ar		1		UNL1		-0.1800
17		C		-1.9593		0.1148		0.3268		C.ar		1		UNL1		0.0881
18		C		1.4564		-1.2034		-0.2429		C.ar		1		UNL1		0.0421
19		C		0.6210		-2.3682		-0.7593		C.3		1		UNL1		-0.1506
20		C		0.0709		-3.2501		0.3791		C.3		1		UNL1		-0.4608
21		C		1.4082		-3.2045		-1.7904		C.3		1		UNL1		-0.4546
22		C		2.6783		-1.5155		0.5146		C.ar		1		UNL1		0.6058
23		O		3.0837		-2.6340		0.8028		O.2		1		UNL1		-0.5051
24		N		3.4074		-0.3953		0.9334		N.ar		1		UNL1		-0.6987
25		C		3.1561		0.9385		0.6855		C.ar		1		UNL1		0.7820
26		O		3.8865		1.8311		1.0829		O.2		1		UNL1		-0.5115
27		H		0.3555		4.8514		-0.2528		H		1		UNL1		0.1464
28		H		-0.3302		3.8274		-1.5536		H		1		UNL1		0.1574
29		H		-1.2162		4.0385		-0.0136		H		1		UNL1		0.1727
30		H		1.6853		2.6717		-1.4791		H		1		UNL1		0.1766
31		H		2.4245		3.1641		0.0845		H		1		UNL1		0.1974
32		H		-1.8526		0.2431		-3.0903		H		1		UNL1		0.1675
33		H		-4.2552		-0.3583		-2.8302		H		1		UNL1		0.1425
34		H		-5.1893		-0.7137		-0.5595		H		1		UNL1		0.1416
35		H		-4.9463		-0.7116		1.8408		H		1		UNL1		0.1360
36		H		-3.5804		-0.3467		3.8764		H		1		UNL1		0.1379
37		H		-1.2069		0.3848		3.6521		H		1		UNL1		0.1408
38		H		-0.2051		0.7159		1.4595		H		1		UNL1		0.1654
39		H		-0.2404		-1.9469		-1.2856		H		1		UNL1		0.1366
40		H		-0.5223		-2.6593		1.0852		H		1		UNL1		0.1483
41		H		-0.5780		-4.0294		-0.0378		H		1		UNL1		0.1379
42		H		0.8838		-3.7336		0.9256		H		1		UNL1		0.1817
43		H		1.7478		-2.5828		-2.6267		H		1		UNL1		0.1432
44		H		0.7649		-3.9943		-2.1958		H		1		UNL1		0.1405
45		H		2.2805		-3.6739		-1.3288		H		1		UNL1		0.1807
46		H		4.2520		-0.5870		1.4607		H		1		UNL1		0.3553
@<TRIPOS>BOND
1		32		9		1
2		33		10		1
3		43		21		1
4		7		6		2
5		44		21		1
6		9		10		ar
7		9		8		ar
8		10		11		ar
9		21		45		1
10		21		19		1
11		28		1		1
12		30		3		1
13		6		8		1
14		6		5		1
15		39		19		1
16		8		17		ar
17		19		18		1
18		19		20		1
19		11		34		1
20		11		12		ar
21		5		18		ar
22		5		4		ar
23		1		27		1
24		1		29		1
25		1		2		1
26		3		4		1
27		3		31		1
28		3		2		1
29		18		22		ar
30		4		25		ar
31		41		20		1
32		17		12		ar
33		17		16		ar
34		20		42		1
35		20		40		1
36		12		13		ar
37		22		23		2
38		22		24		ar
39		25		24		ar
40		25		26		2
41		24		46		1
42		38		16		1
43		16		15		ar
44		13		35		1
45		13		14		ar
46		15		14		ar
47		15		37		1
48		14		36		1

