@<TRIPOS>MOLECULE
LJ-2007-EJMC-198-15
 44 46 0 0 0
SMALL
MULLIKEN_CHARGES
****
Gaussian 16 #p B3LYP/6-31G* opt
@<TRIPOS>ATOM
1		C		2.2586		4.9774		-0.0492		C.2		1		UNL1		-0.3314
2		C		2.3100		3.6497		0.0620		C.2		1		UNL1		-0.0853
3		C		1.3975		2.7232		-0.6950		C.3		1		UNL1		-0.0861
4		O		0.4358		2.0314		0.1289		O.3		1		UNL1		-0.4601
5		C		0.9554		1.1955		1.1210		C.3		1		UNL1		0.0507
6		N		1.7187		0.0473		0.5800		N.ar		1		UNL1		-0.5587
7		C		1.1443		-0.8515		-0.3249		C.ar		1		UNL1		0.2260
8		C		-0.2629		-0.5247		-0.8412		C.2		1		UNL1		0.3626
9		O		-0.3479		-0.1394		-1.9965		O.2		1		UNL1		-0.4605
10		C		-1.4237		-0.7728		0.0561		C.ar		1		UNL1		0.0387
11		C		-1.2397		-1.6363		1.1296		C.ar		1		UNL1		-0.1994
12		C		-2.2963		-1.9805		1.9955		C.ar		1		UNL1		-0.1362
13		C		-3.5447		-1.4402		1.7911		C.ar		1		UNL1		-0.1741
14		C		-3.7886		-0.5399		0.7205		C.ar		1		UNL1		0.1321
15		C		-5.0791		0.0226		0.5315		C.ar		1		UNL1		-0.1958
16		C		-5.3205		0.9016		-0.4981		C.ar		1		UNL1		-0.1256
17		C		-4.2722		1.2531		-1.3782		C.ar		1		UNL1		-0.1378
18		C		-3.0081		0.7228		-1.2284		C.ar		1		UNL1		-0.1744
19		C		-2.7233		-0.1923		-0.1788		C.ar		1		UNL1		0.0784
20		C		1.8170		-1.9238		-0.8220		C.ar		1		UNL1		0.0123
21		C		1.2605		-2.9225		-1.8004		C.3		1		UNL1		-0.5067
22		C		3.2016		-2.1500		-0.3992		C.ar		1		UNL1		0.6012
23		O		3.9050		-3.0840		-0.7538		O.2		1		UNL1		-0.4994
24		N		3.7043		-1.1734		0.4726		N.ar		1		UNL1		-0.6965
25		C		3.0586		-0.0627		0.9754		C.ar		1		UNL1		0.7814
26		O		3.6172		0.7415		1.7082		O.2		1		UNL1		-0.5196
27		H		2.9462		5.6244		0.4893		H		1		UNL1		0.1500
28		H		1.5300		5.4704		-0.6902		H		1		UNL1		0.1438
29		H		3.0584		3.1863		0.7037		H		1		UNL1		0.1683
30		H		1.9803		1.9831		-1.2621		H		1		UNL1		0.1507
31		H		0.7837		3.2809		-1.4064		H		1		UNL1		0.1611
32		H		1.6399		1.7012		1.8021		H		1		UNL1		0.2012
33		H		0.0900		0.8218		1.6696		H		1		UNL1		0.1784
34		H		-0.2618		-2.0780		1.2952		H		1		UNL1		0.1539
35		H		-2.1186		-2.6705		2.8148		H		1		UNL1		0.1445
36		H		-4.3693		-1.6958		2.4525		H		1		UNL1		0.1439
37		H		-5.8724		-0.2541		1.2217		H		1		UNL1		0.1359
38		H		-6.3103		1.3281		-0.6349		H		1		UNL1		0.1375
39		H		-4.4644		1.9522		-2.1876		H		1		UNL1		0.1391
40		H		-2.2194		0.9921		-1.9162		H		1		UNL1		0.1819
41		H		1.4035		-3.9391		-1.4191		H		1		UNL1		0.1741
42		H		1.8034		-2.8674		-2.7510		H		1		UNL1		0.1810
43		H		0.2011		-2.7630		-2.0054		H		1		UNL1		0.1632
44		H		4.6715		-1.2787		0.7585		H		1		UNL1		0.3557
@<TRIPOS>BOND
1		42		21		1
2		39		17		1
3		43		21		1
4		9		8		2
5		40		18		1
6		21		41		1
7		21		20		1
8		31		3		1
9		17		18		ar
10		17		16		ar
11		30		3		1
12		18		19		ar
13		8		7		1
14		8		10		1
15		20		22		ar
16		20		7		ar
17		23		22		2
18		3		2		1
19		3		4		1
20		28		1		1
21		38		16		1
22		16		15		ar
23		22		24		ar
24		7		6		ar
25		19		10		ar
26		19		14		ar
27		1		2		2
28		1		27		1
29		10		11		ar
30		2		29		1
31		4		5		1
32		24		44		1
33		24		25		ar
34		15		14		ar
35		15		37		1
36		6		25		ar
37		6		5		1
38		14		13		ar
39		25		26		2
40		5		33		1
41		5		32		1
42		11		34		1
43		11		12		ar
44		13		12		ar
45		13		36		1
46		12		35		1

