@<TRIPOS>MOLECULE
LJ-2007-EJMC-198-11
 50 53 0 0 0
SMALL
MULLIKEN_CHARGES
****
Gaussian 16 #p B3LYP/6-31G* opt
@<TRIPOS>ATOM
1		C		2.9555		-2.3900		0.7917		C.3		1		UNL1		-0.5113
2		C		3.1167		-0.9478		0.3865		C.ar		1		UNL1		0.0163
3		C		2.2082		-0.2102		-0.3126		C.ar		1		UNL1		0.2493
4		C		0.9303		-0.8619		-0.8428		C.2		1		UNL1		0.3260
5		O		0.8296		-0.9760		-2.0590		O.2		1		UNL1		-0.4655
6		C		-0.0892		-1.3338		0.1297		C.ar		1		UNL1		0.0521
7		C		-0.0514		-0.8122		1.4178		C.ar		1		UNL1		-0.1817
8		C		-1.0102		-1.1553		2.3892		C.ar		1		UNL1		-0.1340
9		C		-2.0088		-2.0464		2.0726		C.ar		1		UNL1		-0.1718
10		C		-2.0928		-2.6235		0.7784		C.ar		1		UNL1		0.1326
11		C		-3.1228		-3.5525		0.4733		C.ar		1		UNL1		-0.1954
12		C		-3.2127		-4.1230		-0.7747		C.ar		1		UNL1		-0.1274
13		C		-2.2669		-3.7809		-1.7666		C.ar		1		UNL1		-0.1361
14		C		-1.2558		-2.8786		-1.5077		C.ar		1		UNL1		-0.1893
15		C		-1.1316		-2.2674		-0.2295		C.ar		1		UNL1		0.0722
16		N		2.4485		1.1080		-0.7033		N.ar		1		UNL1		-0.5511
17		C		1.4764		1.8914		-1.5090		C.3		1		UNL1		-0.2373
18		C		0.2882		2.3500		-0.7137		C.2		1		UNL1		-0.1129
19		C		-0.9803		2.0798		-1.0586		C.2		1		UNL1		-0.1728
20		C		-2.2046		2.5322		-0.3822		C.ar		1		UNL1		0.1703
21		C		-2.2103		3.5252		0.6151		C.ar		1		UNL1		-0.1822
22		C		-3.3969		3.9083		1.2334		C.ar		1		UNL1		-0.1309
23		C		-4.6087		3.3148		0.8672		C.ar		1		UNL1		-0.1283
24		C		-4.6220		2.3362		-0.1273		C.ar		1		UNL1		-0.1303
25		C		-3.4329		1.9530		-0.7457		C.ar		1		UNL1		-0.1925
26		C		3.6257		1.7750		-0.3470		C.ar		1		UNL1		0.7798
27		O		3.8579		2.9382		-0.6383		O.2		1		UNL1		-0.5164
28		N		4.5182		1.0063		0.3770		N.ar		1		UNL1		-0.6985
29		C		4.3827		-0.3242		0.7833		C.ar		1		UNL1		0.6029
30		O		5.2689		-0.8744		1.4220		O.2		1		UNL1		-0.5044
31		H		2.1473		-2.8930		0.2588		H		1		UNL1		0.1589
32		H		2.7644		-2.4804		1.8682		H		1		UNL1		0.1716
33		H		3.8908		-2.9233		0.5964		H		1		UNL1		0.1851
34		H		0.7304		-0.1086		1.6819		H		1		UNL1		0.1549
35		H		-0.9544		-0.7146		3.3799		H		1		UNL1		0.1453
36		H		-2.7542		-2.3239		2.8141		H		1		UNL1		0.1443
37		H		-3.8386		-3.8064		1.2514		H		1		UNL1		0.1366
38		H		-4.0029		-4.8341		-0.9986		H		1		UNL1		0.1377
39		H		-2.3359		-4.2342		-2.7518		H		1		UNL1		0.1395
40		H		-0.5500		-2.6198		-2.2837		H		1		UNL1		0.1811
41		H		1.1761		1.2900		-2.3672		H		1		UNL1		0.1996
42		H		2.0480		2.7512		-1.8644		H		1		UNL1		0.2130
43		H		0.5153		2.9544		0.1636		H		1		UNL1		0.1406
44		H		-1.1449		1.4421		-1.9280		H		1		UNL1		0.1411
45		H		-1.2815		4.0125		0.8976		H		1		UNL1		0.1322
46		H		-3.3790		4.6799		1.9987		H		1		UNL1		0.1328
47		H		-5.5340		3.6197		1.3484		H		1		UNL1		0.1319
48		H		-5.5585		1.8715		-0.4242		H		1		UNL1		0.1326
49		H		-3.4486		1.1881		-1.5185		H		1		UNL1		0.1355
50		H		5.3787		1.4747		0.6380		H		1		UNL1		0.3543
@<TRIPOS>BOND
1		39		13		1
2		41		17		1
3		40		14		1
4		5		4		2
5		44		19		1
6		42		17		1
7		13		14		ar
8		13		12		ar
9		49		25		1
10		17		18		1
11		17		16		1
12		14		15		ar
13		19		18		2
14		19		20		1
15		38		12		1
16		4		3		1
17		4		6		1
18		12		11		ar
19		25		20		ar
20		25		24		ar
21		18		43		1
22		16		26		ar
23		16		3		ar
24		27		26		2
25		48		24		1
26		20		21		ar
27		26		28		ar
28		3		2		ar
29		15		6		ar
30		15		10		ar
31		24		23		ar
32		6		7		ar
33		31		1		1
34		28		50		1
35		28		29		ar
36		2		29		ar
37		2		1		1
38		11		10		ar
39		11		37		1
40		33		1		1
41		21		45		1
42		21		22		ar
43		10		9		ar
44		29		30		2
45		1		32		1
46		23		22		ar
47		23		47		1
48		22		46		1
49		7		34		1
50		7		8		ar
51		9		8		ar
52		9		36		1
53		8		35		1

