@<TRIPOS>MOLECULE
LJ-2006-CPB-1249-17
 55 58 0 0 0
SMALL
MULLIKEN_CHARGES
****
Gaussian 16 #p B3LYP/6-31G* opt
@<TRIPOS>ATOM
1		C		-3.0093		2.9130		-1.3434		C.3		1		UNL1		-0.4532
2		C		-1.6764		2.2657		-1.7590		C.3		1		UNL1		-0.3298
3		C		-0.8106		1.8505		-0.5905		C.ar		1		UNL1		0.0332
4		C		-0.5653		0.5655		-0.2142		C.ar		1		UNL1		0.2214
5		C		-1.0975		-0.5898		-1.0504		C.2		1		UNL1		0.2869
6		O		-0.2877		-1.1515		-1.7810		O.2		1		UNL1		-0.4370
7		C		-2.5396		-0.9742		-1.0633		C.ar		1		UNL1		0.0205
8		C		-2.9497		-1.6136		-2.2290		C.ar		1		UNL1		-0.1584
9		C		-4.2840		-2.0057		-2.4305		C.ar		1		UNL1		-0.1357
10		C		-5.2171		-1.7702		-1.4462		C.ar		1		UNL1		-0.1731
11		C		-4.8511		-1.1549		-0.2216		C.ar		1		UNL1		0.1293
12		C		-5.8210		-0.9572		0.7979		C.ar		1		UNL1		-0.1906
13		C		-5.4777		-0.3951		2.0042		C.ar		1		UNL1		-0.1285
14		C		-4.1370		-0.0152		2.2373		C.ar		1		UNL1		-0.1375
15		C		-3.1729		-0.1868		1.2672		C.ar		1		UNL1		-0.1932
16		C		-3.4888		-0.7451		-0.0025		C.ar		1		UNL1		0.0937
17		N		0.2836		0.2317		0.8449		N.ar		1		UNL1		-0.5368
18		C		0.5185		-1.1503		1.3015		C.3		1		UNL1		-0.2524
19		C		1.9872		-1.5444		1.5836		C.2		1		UNL1		0.4143
20		O		2.1781		-2.2834		2.5353		O.2		1		UNL1		-0.4667
21		C		3.0929		-1.1099		0.6923		C.ar		1		UNL1		0.0722
22		C		2.9105		-0.6863		-0.6377		C.ar		1		UNL1		-0.1925
23		C		4.0012		-0.3378		-1.4212		C.ar		1		UNL1		-0.1886
24		C		5.3001		-0.3882		-0.8913		C.ar		1		UNL1		0.3877
25		O		6.2966		-0.0123		-1.7367		O.3		1		UNL1		-0.5012
26		C		7.6366		-0.0478		-1.2654		C.3		1		UNL1		-0.2188
27		C		5.4965		-0.8123		0.4322		C.ar		1		UNL1		-0.1998
28		C		4.3977		-1.1766		1.2024		C.ar		1		UNL1		-0.1564
29		C		0.8526		1.2190		1.6564		C.ar		1		UNL1		0.7974
30		O		1.5121		0.9524		2.6469		O.2		1		UNL1		-0.5046
31		N		0.6042		2.5126		1.2423		N.ar		1		UNL1		-0.7078
32		C		-0.1692		2.9384		0.1562		C.ar		1		UNL1		0.6054
33		O		-0.2749		4.1300		-0.0982		O.2		1		UNL1		-0.5058
34		H		-2.8274		3.7996		-0.7301		H		1		UNL1		0.1772
35		H		-3.6308		2.2150		-0.7731		H		1		UNL1		0.1492
36		H		-3.5716		3.2226		-2.2315		H		1		UNL1		0.1450
37		H		-1.1038		2.9931		-2.3466		H		1		UNL1		0.1727
38		H		-1.8669		1.4114		-2.4154		H		1		UNL1		0.1438
39		H		-2.2077		-1.7910		-3.0001		H		1		UNL1		0.1732
40		H		-4.5708		-2.4849		-3.3617		H		1		UNL1		0.1482
41		H		-6.2547		-2.0619		-1.5896		H		1		UNL1		0.1470
42		H		-6.8441		-1.2702		0.6050		H		1		UNL1		0.1410
43		H		-6.2256		-0.2512		2.7783		H		1		UNL1		0.1435
44		H		-3.8583		0.4141		3.1955		H		1		UNL1		0.1469
45		H		-2.1579		0.1076		1.4948		H		1		UNL1		0.1563
46		H		-0.0110		-1.3278		2.2408		H		1		UNL1		0.1981
47		H		0.1269		-1.8325		0.5461		H		1		UNL1		0.1997
48		H		1.9219		-0.6646		-1.0842		H		1		UNL1		0.1751
49		H		3.8747		-0.0251		-2.4528		H		1		UNL1		0.1439
50		H		7.7806		0.6264		-0.4115		H		1		UNL1		0.1574
51		H		8.2542		0.2888		-2.0998		H		1		UNL1		0.1734
52		H		7.9353		-1.0643		-0.9790		H		1		UNL1		0.1571
53		H		6.4905		-0.8621		0.8616		H		1		UNL1		0.1373
54		H		4.5346		-1.5161		2.2239		H		1		UNL1		0.1641
55		H		1.0421		3.2383		1.7989		H		1		UNL1		0.3561
@<TRIPOS>BOND
1		40		9		1
2		39		8		1
3		49		23		1
4		9		8		ar
5		9		10		ar
6		38		2		1
7		37		2		1
8		36		1		1
9		8		7		ar
10		51		26		1
11		6		5		2
12		2		1		1
13		2		3		1
14		25		26		1
15		25		24		1
16		41		10		1
17		10		11		ar
18		23		24		ar
19		23		22		ar
20		1		35		1
21		1		34		1
22		26		52		1
23		26		50		1
24		48		22		1
25		7		5		1
26		7		16		ar
27		5		4		1
28		24		27		ar
29		22		21		ar
30		3		4		ar
31		3		32		ar
32		11		16		ar
33		11		12		ar
34		4		17		ar
35		33		32		2
36		16		15		ar
37		32		31		ar
38		27		53		1
39		27		28		ar
40		47		18		1
41		42		12		1
42		21		28		ar
43		21		19		1
44		12		13		ar
45		17		18		1
46		17		29		ar
47		28		54		1
48		31		29		ar
49		31		55		1
50		15		45		1
51		15		14		ar
52		18		19		1
53		18		46		1
54		19		20		2
55		29		30		2
56		13		14		ar
57		13		43		1
58		14		44		1

