@<TRIPOS>MOLECULE
LJ-2007-JMC-1778-4K
 49 52 0 0 0
SMALL
MULLIKEN_CHARGES
****
Gaussian 16 #p B3LYP/6-31G* opt
@<TRIPOS>ATOM
1		C		2.3578		3.9479		-1.8700		C.3		1		UNL1		-0.4482
2		C		1.7884		4.0154		-0.4400		C.3		1		UNL1		-0.3385
3		C		0.7631		2.9407		-0.1735		C.ar		1		UNL1		0.0667
4		C		0.9791		1.7649		0.5078		C.ar		1		UNL1		0.1210
5		C		2.3038		1.4628		1.1915		C.2		1		UNL1		0.3700
6		O		2.7628		2.2763		1.9825		O.2		1		UNL1		-0.4603
7		C		3.0167		0.1881		0.8951		C.ar		1		UNL1		0.0862
8		C		4.1864		-0.1031		1.6557		C.ar		1		UNL1		-0.1624
9		C		4.9171		-1.2363		1.4074		C.ar		1		UNL1		-0.1964
10		C		4.5343		-2.1453		0.3808		C.ar		1		UNL1		0.1468
11		C		5.2689		-3.3248		0.0942		C.ar		1		UNL1		-0.1932
12		C		4.8670		-4.1790		-0.9096		C.ar		1		UNL1		-0.1298
13		C		3.7096		-3.8937		-1.6747		C.ar		1		UNL1		-0.1384
14		C		2.9751		-2.7575		-1.4208		C.ar		1		UNL1		-0.1800
15		C		3.3630		-1.8560		-0.3926		C.ar		1		UNL1		0.1286
16		C		2.6237		-0.6798		-0.1092		C.ar		1		UNL1		-0.2354
17		N		0.0312		0.7832		0.7022		N.ar		1		UNL1		-0.5043
18		C		-1.1619		0.9947		0.2296		C.ar		1		UNL1		0.3236
19		S		-2.3570		-0.2873		0.5233		S.3		1		UNL1		0.2242
20		C		-3.9020		0.3654		-0.2703		C.3		1		UNL1		-0.5461
21		C		-5.0075		-0.6438		-0.0761		C.ar		1		UNL1		0.1418
22		C		-5.8148		-0.6014		1.0680		C.ar		1		UNL1		-0.1581
23		C		-6.8326		-1.5371		1.2507		C.ar		1		UNL1		-0.1289
24		C		-7.0520		-2.5287		0.2926		C.ar		1		UNL1		-0.1242
25		C		-6.2489		-2.5811		-0.8481		C.ar		1		UNL1		-0.1287
26		C		-5.2311		-1.6450		-1.0298		C.ar		1		UNL1		-0.1587
27		N		-1.4845		2.1247		-0.4579		N.ar		1		UNL1		-0.6509
28		C		-0.5627		3.1646		-0.7370		C.ar		1		UNL1		0.5803
29		O		-0.9375		4.1317		-1.3888		O.2		1		UNL1		-0.5225
30		H		2.8772		2.9985		-2.0448		H		1		UNL1		0.1399
31		H		1.5589		4.0477		-2.6111		H		1		UNL1		0.1673
32		H		3.0752		4.7601		-2.0320		H		1		UNL1		0.1478
33		H		2.5932		3.9507		0.2934		H		1		UNL1		0.1759
34		H		1.2979		4.9861		-0.3046		H		1		UNL1		0.1655
35		H		4.4770		0.5980		2.4305		H		1		UNL1		0.1616
36		H		5.8063		-1.4553		1.9939		H		1		UNL1		0.1355
37		H		6.1573		-3.5445		0.6815		H		1		UNL1		0.1349
38		H		5.4392		-5.0788		-1.1186		H		1		UNL1		0.1352
39		H		3.4043		-4.5767		-2.4625		H		1		UNL1		0.1341
40		H		2.0844		-2.5339		-2.0031		H		1		UNL1		0.1350
41		H		1.7317		-0.4764		-0.6919		H		1		UNL1		0.1492
42		H		-3.7153		0.5268		-1.3369		H		1		UNL1		0.1911
43		H		-4.1665		1.3178		0.2002		H		1		UNL1		0.1940
44		H		-5.6455		0.1688		1.8167		H		1		UNL1		0.1392
45		H		-7.4548		-1.4903		2.1401		H		1		UNL1		0.1406
46		H		-7.8463		-3.2564		0.4337		H		1		UNL1		0.1392
47		H		-6.4153		-3.3494		-1.5981		H		1		UNL1		0.1396
48		H		-4.6067		-1.6890		-1.9191		H		1		UNL1		0.1359
49		H		-2.4129		2.2840		-0.8312		H		1		UNL1		0.3542
@<TRIPOS>BOND
1		31		1		1
2		39		13		1
3		30		1		1
4		32		1		1
5		40		14		1
6		48		26		1
7		1		2		1
8		13		14		ar
9		13		12		ar
10		47		25		1
11		14		15		ar
12		29		28		2
13		42		20		1
14		38		12		1
15		26		25		ar
16		26		21		ar
17		12		11		ar
18		25		24		ar
19		49		27		1
20		28		27		ar
21		28		3		ar
22		41		16		1
23		27		18		ar
24		2		34		1
25		2		3		1
26		2		33		1
27		15		16		ar
28		15		10		ar
29		20		21		1
30		20		43		1
31		20		19		1
32		3		4		ar
33		16		7		ar
34		21		22		ar
35		11		10		ar
36		11		37		1
37		18		19		1
38		18		17		ar
39		24		46		1
40		24		23		ar
41		10		9		ar
42		4		17		ar
43		4		5		1
44		7		5		1
45		7		8		ar
46		22		23		ar
47		22		44		1
48		5		6		2
49		23		45		1
50		9		8		ar
51		9		36		1
52		8		35		1

