@<TRIPOS>MOLECULE
LJ-2007-JMC-1778-4A
 36 38 0 0 0
SMALL
MULLIKEN_CHARGES
****
Gaussian 16 #p B3LYP/6-31G* opt
@<TRIPOS>ATOM
1		C		5.4561		-1.7822		0.4800		C.3		1		UNL1		-0.4441
2		C		4.8743		-1.6289		-0.9263		C.3		1		UNL1		-0.4626
3		S		3.0384		-1.7277		-1.0269		S.3		1		UNL1		0.2096
4		C		2.4651		-0.1718		-0.3901		C.ar		1		UNL1		0.3324
5		N		1.1735		-0.0719		-0.2422		N.ar		1		UNL1		-0.5138
6		C		0.6880		1.1351		0.2007		C.ar		1		UNL1		0.2137
7		C		-0.8239		1.3040		0.3050		C.2		1		UNL1		0.3428
8		O		-1.2671		2.4443		0.2437		O.2		1		UNL1		-0.4575
9		C		-1.7018		0.1121		0.4887		C.ar		1		UNL1		0.0501
10		C		-1.2302		-0.9567		1.2377		C.ar		1		UNL1		-0.1556
11		C		-2.0480		-2.0628		1.5452		C.ar		1		UNL1		-0.1418
12		C		-3.3380		-2.1119		1.0724		C.ar		1		UNL1		-0.1757
13		C		-3.8673		-1.0569		0.2835		C.ar		1		UNL1		0.1279
14		C		-5.1957		-1.1243		-0.2158		C.ar		1		UNL1		-0.1956
15		C		-5.7145		-0.1081		-0.9830		C.ar		1		UNL1		-0.1287
16		C		-4.9161		1.0197		-1.2808		C.ar		1		UNL1		-0.1376
17		C		-3.6255		1.1212		-0.8076		C.ar		1		UNL1		-0.1813
18		C		-3.0548		0.0907		-0.0103		C.ar		1		UNL1		0.0842
19		C		1.4754		2.2136		0.5028		C.ar		1		UNL1		-0.2361
20		C		2.9111		2.1268		0.3691		C.ar		1		UNL1		0.6121
21		O		3.7543		2.9789		0.6013		O.2		1		UNL1		-0.5149
22		N		3.3234		0.8461		-0.1088		N.ar		1		UNL1		-0.6419
23		H		5.1419		-2.7299		0.9268		H		1		UNL1		0.1770
24		H		6.5514		-1.7698		0.4330		H		1		UNL1		0.1668
25		H		5.1392		-0.9768		1.1504		H		1		UNL1		0.1649
26		H		5.2226		-0.7188		-1.4285		H		1		UNL1		0.1824
27		H		5.1920		-2.4605		-1.5638		H		1		UNL1		0.2014
28		H		-0.2128		-0.9408		1.6088		H		1		UNL1		0.1470
29		H		-1.6499		-2.8724		2.1498		H		1		UNL1		0.1359
30		H		-3.9753		-2.9645		1.2954		H		1		UNL1		0.1362
31		H		-5.7936		-2.0017		0.0191		H		1		UNL1		0.1308
32		H		-6.7312		-0.1693		-1.3615		H		1		UNL1		0.1320
33		H		-5.3260		1.8213		-1.8895		H		1		UNL1		0.1341
34		H		-3.0377		2.0008		-1.0314		H		1		UNL1		0.1689
35		H		1.0400		3.1482		0.8310		H		1		UNL1		0.1855
36		H		4.3241		0.7553		-0.2386		H		1		UNL1		0.3518
@<TRIPOS>BOND
1		33		16		1
2		27		2		1
3		26		2		1
4		32		15		1
5		16		15		ar
6		16		17		ar
7		34		17		1
8		3		2		1
9		3		4		1
10		15		14		ar
11		2		1		1
12		17		18		ar
13		4		5		ar
14		4		22		ar
15		5		6		ar
16		36		22		1
17		14		31		1
18		14		13		ar
19		22		20		ar
20		18		13		ar
21		18		9		ar
22		6		7		1
23		6		19		ar
24		8		7		2
25		13		12		ar
26		7		9		1
27		20		19		ar
28		20		21		2
29		24		1		1
30		1		23		1
31		1		25		1
32		9		10		ar
33		19		35		1
34		12		30		1
35		12		11		ar
36		10		11		ar
37		10		28		1
38		11		29		1

