@<TRIPOS>MOLECULE
LJ-2006-CPB-1249-27
 46 48 0 0 0
SMALL
MULLIKEN_CHARGES
****
Gaussian 16 #p B3LYP/6-31G* opt
@<TRIPOS>ATOM
1		C		2.3343		4.3284		0.8021		C.2		1		UNL1		-0.3210
2		C		1.5671		3.2393		0.7831		C.2		1		UNL1		-0.0548
3		C		1.2965		2.4434		-0.4677		C.3		1		UNL1		-0.2235
4		N		1.8716		1.0768		-0.4092		N.ar		1		UNL1		-0.5330
5		C		1.1774		-0.0109		0.1085		C.ar		1		UNL1		0.2183
6		C		-0.2434		0.2874		0.5980		C.2		1		UNL1		0.3084
7		O		-0.3429		0.7569		1.7250		O.2		1		UNL1		-0.4625
8		C		-1.3843		0.0030		-0.3109		C.ar		1		UNL1		0.0580
9		C		-1.0905		-0.4111		-1.6072		C.ar		1		UNL1		-0.1933
10		C		-2.0981		-0.6770		-2.5531		C.ar		1		UNL1		-0.1366
11		C		-3.4184		-0.5347		-2.1947		C.ar		1		UNL1		-0.1718
12		C		-3.7836		-0.1220		-0.8865		C.ar		1		UNL1		0.1332
13		C		-5.1532		0.0129		-0.5364		C.ar		1		UNL1		-0.1951
14		C		-5.5227		0.4101		0.7273		C.ar		1		UNL1		-0.1259
15		C		-4.5262		0.6871		1.6889		C.ar		1		UNL1		-0.1347
16		C		-3.1855		0.5687		1.3839		C.ar		1		UNL1		-0.1887
17		C		-2.7653		0.1609		0.0884		C.ar		1		UNL1		0.0703
18		C		1.7250		-1.2486		0.2724		C.ar		1		UNL1		0.0349
19		C		0.9563		-2.4219		0.8660		C.3		1		UNL1		-0.1485
20		C		0.8503		-3.6058		-0.1150		C.3		1		UNL1		-0.4551
21		C		1.5563		-2.8595		2.2176		C.3		1		UNL1		-0.4536
22		C		3.1265		-1.4408		-0.1124		C.ar		1		UNL1		0.6031
23		O		3.7704		-2.4790		-0.0196		O.2		1		UNL1		-0.5123
24		N		3.7390		-0.2956		-0.6417		N.ar		1		UNL1		-0.7008
25		C		3.2086		0.9695		-0.8072		C.ar		1		UNL1		0.7881
26		O		3.8460		1.8999		-1.2723		O.2		1		UNL1		-0.5141
27		H		2.5032		4.8886		1.7180		H		1		UNL1		0.1475
28		H		2.8283		4.6947		-0.0945		H		1		UNL1		0.1577
29		H		1.0985		2.8687		1.6927		H		1		UNL1		0.1641
30		H		1.7440		2.9288		-1.3353		H		1		UNL1		0.1960
31		H		0.2228		2.3403		-0.6495		H		1		UNL1		0.1692
32		H		-0.0546		-0.5358		-1.9031		H		1		UNL1		0.1622
33		H		-1.8261		-0.9940		-3.5551		H		1		UNL1		0.1479
34		H		-4.2083		-0.7391		-2.9136		H		1		UNL1		0.1468
35		H		-5.9051		-0.2066		-1.2904		H		1		UNL1		0.1382
36		H		-6.5727		0.5101		0.9872		H		1		UNL1		0.1398
37		H		-4.8180		0.9997		2.6879		H		1		UNL1		0.1418
38		H		-2.4369		0.7894		2.1306		H		1		UNL1		0.1870
39		H		-0.0652		-2.0777		1.0673		H		1		UNL1		0.1344
40		H		0.2533		-4.4096		0.3315		H		1		UNL1		0.1404
41		H		1.8401		-4.0014		-0.3544		H		1		UNL1		0.1845
42		H		0.3608		-3.3037		-1.0484		H		1		UNL1		0.1322
43		H		0.9559		-3.6686		2.6501		H		1		UNL1		0.1392
44		H		2.5799		-3.2201		2.0886		H		1		UNL1		0.1806
45		H		1.5657		-2.0261		2.9288		H		1		UNL1		0.1480
46		H		4.7093		-0.3983		-0.9178		H		1		UNL1		0.3535
@<TRIPOS>BOND
1		33		10		1
2		34		11		1
3		10		11		ar
4		10		9		ar
5		11		12		ar
6		32		9		1
7		9		8		ar
8		30		3		1
9		35		13		1
10		26		25		2
11		42		20		1
12		46		24		1
13		12		13		ar
14		12		17		ar
15		25		24		ar
16		25		4		ar
17		31		3		1
18		24		22		ar
19		13		14		ar
20		3		4		1
21		3		2		1
22		4		5		ar
23		41		20		1
24		8		17		ar
25		8		6		1
26		20		40		1
27		20		19		1
28		22		23		2
29		22		18		ar
30		28		1		1
31		17		16		ar
32		5		18		ar
33		5		6		1
34		18		19		1
35		6		7		2
36		14		36		1
37		14		15		ar
38		2		1		2
39		2		29		1
40		1		27		1
41		19		39		1
42		19		21		1
43		16		15		ar
44		16		38		1
45		15		37		1
46		44		21		1
47		21		43		1
48		21		45		1

