@<TRIPOS>MOLECULE
LJ-2006-CPB-1249-19
 43 45 0 0 0
SMALL
MULLIKEN_CHARGES
****
Gaussian 16 #p B3LYP/6-31G* opt
@<TRIPOS>ATOM
1		C		0.7319		4.0069		-0.7818		C.2		1		UNL1		-0.3238
2		C		1.6505		3.3323		-0.0926		C.2		1		UNL1		-0.0422
3		C		1.3291		2.2030		0.8505		C.3		1		UNL1		-0.2161
4		N		1.9731		0.9231		0.4616		N.ar		1		UNL1		-0.5317
5		C		1.3210		-0.0589		-0.2780		C.ar		1		UNL1		0.2342
6		C		-0.1253		0.2427		-0.6838		C.2		1		UNL1		0.3135
7		O		-0.2809		0.8400		-1.7396		O.2		1		UNL1		-0.4542
8		C		-1.2228		-0.2104		0.2121		C.ar		1		UNL1		0.0540
9		C		-0.8699		-0.8340		1.4055		C.ar		1		UNL1		-0.1964
10		C		-1.8330		-1.2780		2.3311		C.ar		1		UNL1		-0.1369
11		C		-3.1688		-1.0991		2.0571		C.ar		1		UNL1		-0.1724
12		C		-3.5940		-0.4738		0.8557		C.ar		1		UNL1		0.1336
13		C		-4.9786		-0.3021		0.5912		C.ar		1		UNL1		-0.1952
14		C		-5.4064		0.3003		-0.5687		C.ar		1		UNL1		-0.1260
15		C		-4.4552		0.7531		-1.5092		C.ar		1		UNL1		-0.1348
16		C		-3.1015		0.6042		-1.2858		C.ar		1		UNL1		-0.1922
17		C		-2.6215		-0.0123		-0.0977		C.ar		1		UNL1		0.0695
18		C		1.9331		-1.1978		-0.7037		C.ar		1		UNL1		0.0242
19		C		1.2587		-2.2858		-1.5080		C.3		1		UNL1		-0.3314
20		C		0.9694		-3.5627		-0.6991		C.3		1		UNL1		-0.4508
21		C		3.3452		-1.4021		-0.3755		C.ar		1		UNL1		0.6031
22		O		4.0198		-2.3695		-0.7019		O.2		1		UNL1		-0.5106
23		N		3.9149		-0.3677		0.3811		N.ar		1		UNL1		-0.7031
24		C		3.3225		0.8059		0.8052		C.ar		1		UNL1		0.7844
25		O		3.9236		1.6649		1.4324		O.2		1		UNL1		-0.5215
26		H		-0.3256		3.7582		-0.7280		H		1		UNL1		0.1469
27		H		1.0032		4.8326		-1.4337		H		1		UNL1		0.1499
28		H		2.7046		3.5915		-0.1658		H		1		UNL1		0.1611
29		H		1.7003		2.4324		1.8527		H		1		UNL1		0.1975
30		H		0.2526		2.0386		0.9155		H		1		UNL1		0.1659
31		H		0.1789		-0.9889		1.6339		H		1		UNL1		0.1622
32		H		-1.5146		-1.7586		3.2510		H		1		UNL1		0.1478
33		H		-3.9249		-1.4378		2.7614		H		1		UNL1		0.1466
34		H		-5.6950		-0.6592		1.3270		H		1		UNL1		0.1381
35		H		-6.4676		0.4270		-0.7634		H		1		UNL1		0.1397
36		H		-4.7931		1.2269		-2.4269		H		1		UNL1		0.1416
37		H		-2.3877		0.9561		-2.0161		H		1		UNL1		0.1886
38		H		0.3339		-1.9066		-1.9540		H		1		UNL1		0.1514
39		H		1.9257		-2.5435		-2.3390		H		1		UNL1		0.1719
40		H		0.5209		-4.3275		-1.3431		H		1		UNL1		0.1465
41		H		1.8954		-3.9690		-0.2828		H		1		UNL1		0.1755
42		H		0.2729		-3.3643		0.1233		H		1		UNL1		0.1378
43		H		4.8964		-0.4683		0.6151		H		1		UNL1		0.3537
@<TRIPOS>BOND
1		36		15		1
2		39		19		1
3		37		16		1
4		38		19		1
5		7		6		2
6		15		16		ar
7		15		14		ar
8		19		18		1
9		19		20		1
10		27		1		1
11		40		20		1
12		16		17		ar
13		1		26		1
14		1		2		2
15		35		14		1
16		18		21		ar
17		18		5		ar
18		22		21		2
19		20		41		1
20		20		42		1
21		6		5		1
22		6		8		1
23		14		13		ar
24		21		23		ar
25		5		4		ar
26		28		2		1
27		17		8		ar
28		17		12		ar
29		2		3		1
30		8		9		ar
31		23		43		1
32		23		24		ar
33		4		24		ar
34		4		3		1
35		13		12		ar
36		13		34		1
37		24		25		2
38		3		30		1
39		3		29		1
40		12		11		ar
41		9		31		1
42		9		10		ar
43		11		10		ar
44		11		33		1
45		10		32		1

