@<TRIPOS>MOLECULE
LJ-2007-JMC-1778-3B
 45 48 0 0 0
SMALL
MULLIKEN_CHARGES
****
Gaussian 16 #p B3LYP/6-31G* opt
@<TRIPOS>ATOM
1		N		-2.1738		-3.8233		-1.5817		N.1		1		UNL1		-0.4843
2		C		-2.0370		-2.6973		-1.3347		C.1		1		UNL1		0.3738
3		C		-1.8488		-1.2722		-1.0184		C.3		1		UNL1		-0.3182
4		C		-0.5598		-1.1171		-0.1906		C.ar		1		UNL1		0.3184
5		C		-0.5293		-1.3787		1.1500		C.ar		1		UNL1		-0.2411
6		C		0.7072		-1.2461		1.8835		C.ar		1		UNL1		0.6121
7		O		0.9167		-1.4318		3.0719		O.2		1		UNL1		-0.5178
8		N		1.7855		-0.8351		1.0409		N.ar		1		UNL1		-0.6472
9		C		1.6604		-0.5937		-0.2901		C.ar		1		UNL1		0.3306
10		S		3.0390		-0.0739		-1.2736		S.3		1		UNL1		0.2098
11		C		4.4787		-0.1161		-0.1203		C.3		1		UNL1		-0.3023
12		C		4.5286		1.0140		0.9596		C.3		1		UNL1		-0.2893
13		C		5.8130		1.8187		0.6591		C.3		1		UNL1		-0.2715
14		C		6.7319		0.8070		-0.0429		C.3		1		UNL1		-0.2760
15		C		5.7682		0.0503		-0.9704		C.3		1		UNL1		-0.2842
16		N		0.5258		-0.7230		-0.9285		N.ar		1		UNL1		-0.5233
17		C		-3.0842		-0.6443		-0.3694		C.ar		1		UNL1		0.1015
18		C		-4.0764		-1.4267		0.1838		C.ar		1		UNL1		-0.2058
19		C		-5.2158		-0.8472		0.7916		C.ar		1		UNL1		-0.1380
20		C		-5.3556		0.5177		0.8350		C.ar		1		UNL1		-0.1814
21		C		-4.3619		1.3650		0.2746		C.ar		1		UNL1		0.1349
22		C		-4.4980		2.7782		0.3073		C.ar		1		UNL1		-0.1947
23		C		-3.5347		3.5973		-0.2353		C.ar		1		UNL1		-0.1290
24		C		-2.3870		3.0306		-0.8351		C.ar		1		UNL1		-0.1393
25		C		-2.2220		1.6631		-0.8837		C.ar		1		UNL1		-0.2043
26		C		-3.1997		0.7856		-0.3371		C.ar		1		UNL1		0.0912
27		H		-1.6479		-0.7761		-1.9750		H		1		UNL1		0.2173
28		H		-1.4129		-1.6785		1.6996		H		1		UNL1		0.1686
29		H		2.6657		-0.7059		1.5253		H		1		UNL1		0.3600
30		H		4.4875		-1.1057		0.3484		H		1		UNL1		0.1812
31		H		4.5963		0.5625		1.9577		H		1		UNL1		0.1535
32		H		3.6340		1.6431		0.9479		H		1		UNL1		0.1714
33		H		6.2535		2.2542		1.5614		H		1		UNL1		0.1513
34		H		5.5848		2.6451		-0.0254		H		1		UNL1		0.1507
35		H		7.5564		1.2769		-0.5888		H		1		UNL1		0.1524
36		H		7.1716		0.1190		0.6912		H		1		UNL1		0.1448
37		H		6.1498		-0.9115		-1.3247		H		1		UNL1		0.1640
38		H		5.5617		0.6663		-1.8555		H		1		UNL1		0.1661
39		H		-3.9938		-2.5087		0.1429		H		1		UNL1		0.1602
40		H		-5.9775		-1.4939		1.2174		H		1		UNL1		0.1399
41		H		-6.2293		0.9713		1.2966		H		1		UNL1		0.1348
42		H		-5.3844		3.2025		0.7728		H		1		UNL1		0.1342
43		H		-3.6521		4.6770		-0.2039		H		1		UNL1		0.1337
44		H		-1.6263		3.6793		-1.2610		H		1		UNL1		0.1344
45		H		-1.3234		1.2599		-1.3396		H		1		UNL1		0.1571
@<TRIPOS>BOND
1		27		3		1
2		38		15		1
3		1		2		3
4		45		25		1
5		2		3		1
6		37		15		1
7		10		9		1
8		10		11		1
9		44		24		1
10		3		17		1
11		3		4		1
12		15		11		1
13		15		14		1
14		16		9		ar
15		16		4		ar
16		25		24		ar
17		25		26		ar
18		24		23		ar
19		35		14		1
20		17		26		ar
21		17		18		ar
22		26		21		ar
23		9		8		ar
24		23		43		1
25		23		22		ar
26		4		5		ar
27		11		30		1
28		11		12		1
29		14		13		1
30		14		36		1
31		34		13		1
32		39		18		1
33		18		19		ar
34		21		22		ar
35		21		20		ar
36		22		42		1
37		13		12		1
38		13		33		1
39		19		20		ar
40		19		40		1
41		20		41		1
42		32		12		1
43		12		31		1
44		8		29		1
45		8		6		ar
46		5		28		1
47		5		6		ar
48		6		7		2

