@<TRIPOS>MOLECULE
LJ-2007-JMC-1778-3J
 44 46 0 0 0
SMALL
MULLIKEN_CHARGES
****
Gaussian 16 #p B3LYP/6-31G* opt
@<TRIPOS>ATOM
1		C		1.7328		-3.8654		0.7422		C.3		1		UNL1		-0.4427
2		C		1.2138		-3.5236		-0.6509		C.3		1		UNL1		-0.4146
3		S		2.3593		-2.4701		-1.6379		S.3		1		UNL1		0.1462
4		C		2.0082		-0.8654		-0.9678		C.ar		1		UNL1		0.3350
5		N		1.0677		-0.6686		-0.0948		N.ar		1		UNL1		-0.5086
6		C		0.8736		0.6120		0.3661		C.ar		1		UNL1		0.2519
7		C		-0.2511		0.7008		1.4155		C.3		1		UNL1		-0.3233
8		C		0.2997		0.2396		2.7011		C.1		1		UNL1		0.3846
9		N		0.7612		-0.1132		3.7065		N.1		1		UNL1		-0.4927
10		C		-1.5195		-0.0628		1.0169		C.ar		1		UNL1		0.1236
11		C		-1.8402		-1.2630		1.6156		C.ar		1		UNL1		-0.1955
12		C		-3.0103		-1.9738		1.2604		C.ar		1		UNL1		-0.1436
13		C		-3.8584		-1.4740		0.3029		C.ar		1		UNL1		-0.1831
14		C		-3.5718		-0.2415		-0.3417		C.ar		1		UNL1		0.1340
15		C		-4.4441		0.2896		-1.3289		C.ar		1		UNL1		-0.1942
16		C		-4.1687		1.4840		-1.9536		C.ar		1		UNL1		-0.1305
17		C		-2.9980		2.1996		-1.6138		C.ar		1		UNL1		-0.1401
18		C		-2.1307		1.7127		-0.6603		C.ar		1		UNL1		-0.1936
19		C		-2.3831		0.4838		0.0110		C.ar		1		UNL1		0.0915
20		C		1.6168		1.6991		-0.0222		C.ar		1		UNL1		0.0419
21		C		1.5070		3.1097		0.5057		C.3		1		UNL1		-0.3390
22		C		2.5001		3.3948		1.6492		C.3		1		UNL1		-0.4516
23		C		2.6745		1.4862		-1.0103		C.ar		1		UNL1		0.5894
24		O		3.4278		2.3373		-1.4653		O.2		1		UNL1		-0.5193
25		N		2.7884		0.1476		-1.4410		N.ar		1		UNL1		-0.6510
26		H		2.7005		-4.3745		0.6969		H		1		UNL1		0.1601
27		H		1.0192		-4.5311		1.2433		H		1		UNL1		0.1557
28		H		1.8377		-2.9630		1.3500		H		1		UNL1		0.1869
29		H		1.0915		-4.4175		-1.2705		H		1		UNL1		0.1805
30		H		0.2590		-2.9958		-0.6068		H		1		UNL1		0.2173
31		H		-0.5117		1.7532		1.5633		H		1		UNL1		0.1977
32		H		-1.1894		-1.6703		2.3828		H		1		UNL1		0.1574
33		H		-3.2323		-2.9141		1.7570		H		1		UNL1		0.1368
34		H		-4.7628		-2.0107		0.0270		H		1		UNL1		0.1338
35		H		-5.3406		-0.2711		-1.5825		H		1		UNL1		0.1341
36		H		-4.8451		1.8783		-2.7067		H		1		UNL1		0.1351
37		H		-2.7784		3.1406		-2.1107		H		1		UNL1		0.1360
38		H		-1.2331		2.2775		-0.4349		H		1		UNL1		0.1401
39		H		0.4879		3.3268		0.8447		H		1		UNL1		0.1387
40		H		1.7202		3.7925		-0.3233		H		1		UNL1		0.1767
41		H		2.3202		2.7393		2.5082		H		1		UNL1		0.1589
42		H		3.5276		3.2391		1.3064		H		1		UNL1		0.1721
43		H		2.4082		4.4336		1.9850		H		1		UNL1		0.1497
44		H		3.5246		-0.0266		-2.1183		H		1		UNL1		0.3572
@<TRIPOS>BOND
1		36		16		1
2		44		25		1
3		37		17		1
4		16		17		ar
5		16		15		ar
6		3		4		1
7		3		2		1
8		17		18		ar
9		35		15		1
10		24		23		2
11		25		23		ar
12		25		4		ar
13		15		14		ar
14		29		2		1
15		23		20		ar
16		4		5		ar
17		18		38		1
18		18		19		ar
19		2		30		1
20		2		1		1
21		14		19		ar
22		14		13		ar
23		40		21		1
24		5		6		ar
25		20		6		ar
26		20		21		1
27		19		10		ar
28		34		13		1
29		13		12		ar
30		6		7		1
31		21		39		1
32		21		22		1
33		26		1		1
34		1		27		1
35		1		28		1
36		10		7		1
37		10		11		ar
38		12		11		ar
39		12		33		1
40		42		22		1
41		7		31		1
42		7		8		1
43		11		32		1
44		22		43		1
45		22		41		1
46		8		9		3

