@<TRIPOS>MOLECULE
LJ-2007-EJMC-198-17
 53 56 0 0 0
SMALL
MULLIKEN_CHARGES
****
Gaussian 16 #p B3LYP/6-31G* opt
@<TRIPOS>ATOM
1		C		4.1772		2.3590		-1.0384		C.3		1		UNL1		-0.4476
2		C		2.8269		1.8338		-1.5600		C.3		1		UNL1		-0.3313
3		C		1.6607		2.2957		-0.7169		C.ar		1		UNL1		0.0183
4		C		1.0830		1.5623		0.2743		C.ar		1		UNL1		0.2402
5		C		1.6729		0.2039		0.6710		C.2		1		UNL1		0.3178
6		O		2.4176		0.2202		1.6449		O.2		1		UNL1		-0.4645
7		C		1.3283		-1.0053		-0.1150		C.ar		1		UNL1		0.0566
8		C		0.3757		-0.8762		-1.1210		C.ar		1		UNL1		-0.1827
9		C		-0.0440		-1.9703		-1.8991		C.ar		1		UNL1		-0.1337
10		C		0.5027		-3.2117		-1.6719		C.ar		1		UNL1		-0.1725
11		C		1.4849		-3.4086		-0.6660		C.ar		1		UNL1		0.1324
12		C		2.0406		-4.6981		-0.4540		C.ar		1		UNL1		-0.1956
13		C		2.9946		-4.9055		0.5146		C.ar		1		UNL1		-0.1266
14		C		3.4268		-3.8203		1.3078		C.ar		1		UNL1		-0.1352
15		C		2.9077		-2.5537		1.1313		C.ar		1		UNL1		-0.1901
16		C		1.9195		-2.3009		0.1409		C.ar		1		UNL1		0.0691
17		N		0.0664		2.0597		1.0906		N.ar		1		UNL1		-0.5478
18		C		-0.5569		1.2593		2.1586		C.3		1		UNL1		-0.2071
19		C		-1.7318		0.4166		1.7277		C.2		1		UNL1		-0.1250
20		C		-2.4419		0.5710		0.6026		C.2		1		UNL1		-0.1574
21		C		-3.6047		-0.2181		0.1679		C.ar		1		UNL1		0.1749
22		C		-4.0174		-1.4032		0.8050		C.ar		1		UNL1		-0.1813
23		C		-5.1317		-2.1053		0.3554		C.ar		1		UNL1		-0.1308
24		C		-5.8609		-1.6467		-0.7459		C.ar		1		UNL1		-0.1294
25		C		-5.4605		-0.4785		-1.3949		C.ar		1		UNL1		-0.1296
26		C		-4.3438		0.2235		-0.9436		C.ar		1		UNL1		-0.1990
27		C		-0.4128		3.3682		0.9501		C.ar		1		UNL1		0.7820
28		O		-1.2831		3.8417		1.6621		O.2		1		UNL1		-0.5117
29		N		0.1795		4.0801		-0.0762		N.ar		1		UNL1		-0.7046
30		C		1.1961		3.6662		-0.9459		C.ar		1		UNL1		0.6082
31		O		1.6216		4.4261		-1.8053		O.2		1		UNL1		-0.5103
32		H		4.9944		2.0234		-1.6868		H		1		UNL1		0.1451
33		H		4.1832		3.4531		-1.0236		H		1		UNL1		0.1694
34		H		4.3725		1.9962		-0.0234		H		1		UNL1		0.1552
35		H		2.6711		2.2024		-2.5796		H		1		UNL1		0.1690
36		H		2.8521		0.7411		-1.6121		H		1		UNL1		0.1425
37		H		-0.0610		0.0967		-1.3131		H		1		UNL1		0.1564
38		H		-0.7971		-1.8270		-2.6674		H		1		UNL1		0.1496
39		H		0.1882		-4.0677		-2.2643		H		1		UNL1		0.1458
40		H		1.6955		-5.5198		-1.0769		H		1		UNL1		0.1371
41		H		3.4153		-5.8951		0.6695		H		1		UNL1		0.1383
42		H		4.1822		-3.9827		2.0720		H		1		UNL1		0.1402
43		H		3.2479		-1.7366		1.7503		H		1		UNL1		0.1861
44		H		0.2155		0.6372		2.6149		H		1		UNL1		0.1901
45		H		-0.8813		1.9755		2.9200		H		1		UNL1		0.2135
46		H		-2.0116		-0.3437		2.4557		H		1		UNL1		0.1383
47		H		-2.1556		1.3694		-0.0811		H		1		UNL1		0.1284
48		H		-3.4558		-1.7857		1.6525		H		1		UNL1		0.1283
49		H		-5.4311		-3.0185		0.8632		H		1		UNL1		0.1318
50		H		-6.7295		-2.1982		-1.0950		H		1		UNL1		0.1316
51		H		-6.0173		-0.1118		-2.2532		H		1		UNL1		0.1328
52		H		-4.0406		1.1366		-1.4511		H		1		UNL1		0.1311
53		H		-0.1547		5.0304		-0.1918		H		1		UNL1		0.3540
@<TRIPOS>BOND
1		38		9		1
2		35		2		1
3		39		10		1
4		51		25		1
5		9		10		ar
6		9		8		ar
7		31		30		2
8		32		1		1
9		10		11		ar
10		36		2		1
11		2		1		1
12		2		3		1
13		52		26		1
14		25		26		ar
15		25		24		ar
16		37		8		1
17		8		7		ar
18		50		24		1
19		40		12		1
20		1		33		1
21		1		34		1
22		30		3		ar
23		30		29		ar
24		26		21		ar
25		24		23		ar
26		3		4		ar
27		11		12		ar
28		11		16		ar
29		12		13		ar
30		53		29		1
31		7		16		ar
32		7		5		1
33		47		20		1
34		29		27		ar
35		16		15		ar
36		21		20		1
37		21		22		ar
38		4		5		1
39		4		17		ar
40		23		22		ar
41		23		49		1
42		13		41		1
43		13		14		ar
44		20		19		2
45		5		6		2
46		22		48		1
47		27		17		ar
48		27		28		2
49		17		18		1
50		15		14		ar
51		15		43		1
52		14		42		1
53		19		18		1
54		19		46		1
55		18		44		1
56		18		45		1

