@<TRIPOS>MOLECULE
LJ-2007-JMC-1778-3N
 45 47 0 0 0
SMALL
MULLIKEN_CHARGES
****
Gaussian 16 #p B3LYP/6-31G* opt
@<TRIPOS>ATOM
1		C		-6.0472		-0.8099		-0.8992		C.2		1		UNL1		-0.3234
2		C		-5.8355		-1.4978		0.2234		C.2		1		UNL1		-0.0863
3		C		-4.6260		-2.3301		0.5755		C.3		1		UNL1		-0.5027
4		S		-3.2022		-2.3352		-0.5906		S.3		1		UNL1		0.2038
5		C		-2.3767		-0.7998		-0.2287		C.ar		1		UNL1		0.3157
6		N		-1.1218		-0.7277		-0.5562		N.ar		1		UNL1		-0.5031
7		C		-0.4617		0.4627		-0.3339		C.ar		1		UNL1		0.2050
8		C		0.9941		0.3670		-0.8069		C.3		1		UNL1		-0.3351
9		C		1.4156		1.5431		-1.5901		C.1		1		UNL1		0.3865
10		N		1.7636		2.4381		-2.2431		N.1		1		UNL1		-0.4881
11		C		2.0221		0.0115		0.2854		C.ar		1		UNL1		0.1176
12		C		1.7210		0.1543		1.6229		C.ar		1		UNL1		-0.1884
13		C		2.6528		-0.1910		2.6306		C.ar		1		UNL1		-0.1381
14		C		3.8870		-0.6843		2.2894		C.ar		1		UNL1		-0.1827
15		C		4.2437		-0.8558		0.9252		C.ar		1		UNL1		0.1359
16		C		5.5146		-1.3742		0.5610		C.ar		1		UNL1		-0.1933
17		C		5.8607		-1.5446		-0.7596		C.ar		1		UNL1		-0.1300
18		C		4.9414		-1.1983		-1.7756		C.ar		1		UNL1		-0.1339
19		C		3.7001		-0.6920		-1.4569		C.ar		1		UNL1		-0.1899
20		C		3.3049		-0.5040		-0.1030		C.ar		1		UNL1		0.0893
21		C		-1.0345		1.5643		0.2572		C.ar		1		UNL1		0.0562
22		C		-0.3587		2.8795		0.5685		C.3		1		UNL1		-0.3296
23		C		-0.7965		4.0307		-0.3568		C.3		1		UNL1		-0.4552
24		C		-2.4432		1.4797		0.6395		C.ar		1		UNL1		0.5797
25		O		-3.1106		2.3572		1.1724		O.2		1		UNL1		-0.5169
26		N		-3.0495		0.2381		0.3351		N.ar		1		UNL1		-0.6401
27		H		-5.3204		-0.7881		-1.7070		H		1		UNL1		0.1783
28		H		-6.9673		-0.2531		-1.0484		H		1		UNL1		0.1622
29		H		-6.6006		-1.4983		1.0014		H		1		UNL1		0.1560
30		H		-4.2535		-2.0697		1.5735		H		1		UNL1		0.1999
31		H		-4.9101		-3.3889		0.6316		H		1		UNL1		0.2094
32		H		0.9771		-0.4709		-1.5142		H		1		UNL1		0.2247
33		H		0.7477		0.5290		1.9195		H		1		UNL1		0.1402
34		H		2.3785		-0.0629		3.6738		H		1		UNL1		0.1357
35		H		4.6089		-0.9537		3.0566		H		1		UNL1		0.1341
36		H		6.2130		-1.6355		1.3525		H		1		UNL1		0.1333
37		H		6.8366		-1.9418		-1.0243		H		1		UNL1		0.1344
38		H		5.2166		-1.3284		-2.8185		H		1		UNL1		0.1370
39		H		3.0272		-0.4214		-2.2628		H		1		UNL1		0.1433
40		H		-0.6207		3.1460		1.6000		H		1		UNL1		0.1630
41		H		0.7280		2.7689		0.5336		H		1		UNL1		0.1553
42		H		-0.3084		4.9617		-0.0484		H		1		UNL1		0.1472
43		H		-1.8784		4.1772		-0.2990		H		1		UNL1		0.1686
44		H		-0.5149		3.8316		-1.3947		H		1		UNL1		0.1671
45		H		-4.0540		0.1981		0.4878		H		1		UNL1		0.3573
@<TRIPOS>BOND
1		38		18		1
2		39		19		1
3		10		9		3
4		18		19		ar
5		18		17		ar
6		27		1		1
7		9		8		1
8		32		8		1
9		19		20		ar
10		44		23		1
11		28		1		1
12		37		17		1
13		1		2		2
14		8		7		1
15		8		11		1
16		17		16		ar
17		4		5		1
18		4		3		1
19		6		7		ar
20		6		5		ar
21		23		43		1
22		23		42		1
23		23		22		1
24		7		21		ar
25		5		26		ar
26		20		11		ar
27		20		15		ar
28		2		3		1
29		2		29		1
30		21		22		1
31		21		24		ar
32		11		12		ar
33		26		45		1
34		26		24		ar
35		41		22		1
36		16		15		ar
37		16		36		1
38		22		40		1
39		3		31		1
40		3		30		1
41		24		25		2
42		15		14		ar
43		12		33		1
44		12		13		ar
45		14		13		ar
46		14		35		1
47		13		34		1

