@<TRIPOS>MOLECULE
LJ-2007-JMC-1778-4M
 52 55 0 0 0
SMALL
MULLIKEN_CHARGES
****
Gaussian 16 #p B3LYP/6-31G* opt
@<TRIPOS>ATOM
1		C		-1.9108		-4.2457		-1.5389		C.3		1		UNL1		-0.4558
2		C		-1.3068		-3.6258		-0.2628		C.3		1		UNL1		-0.1440
3		C		-1.6397		-4.4634		0.9886		C.3		1		UNL1		-0.4572
4		C		-1.7274		-2.1737		-0.1049		C.ar		1		UNL1		0.0686
5		C		-0.8647		-1.1082		-0.1991		C.ar		1		UNL1		0.1071
6		C		0.5962		-1.2743		-0.6075		C.2		1		UNL1		0.3699
7		O		0.8262		-1.7712		-1.7026		O.2		1		UNL1		-0.4647
8		C		1.6505		-0.7965		0.3321		C.ar		1		UNL1		0.0575
9		C		1.3032		-0.6447		1.6682		C.ar		1		UNL1		-0.1851
10		C		2.2440		-0.2607		2.6441		C.ar		1		UNL1		-0.1387
11		C		3.5435		-0.0068		2.2729		C.ar		1		UNL1		-0.1772
12		C		3.9554		-0.1314		0.9199		C.ar		1		UNL1		0.1328
13		C		5.2981		0.1457		0.5484		C.ar		1		UNL1		-0.1972
14		C		5.7072		0.0304		-0.7595		C.ar		1		UNL1		-0.1276
15		C		4.7797		-0.3689		-1.7479		C.ar		1		UNL1		-0.1378
16		C		3.4692		-0.6502		-1.4233		C.ar		1		UNL1		-0.1849
17		C		3.0094		-0.5420		-0.0814		C.ar		1		UNL1		0.0674
18		N		-1.2099		0.2191		-0.0451		N.ar		1		UNL1		-0.5021
19		C		-2.4618		0.4866		0.1797		C.ar		1		UNL1		0.3326
20		S		-3.0591		2.1428		0.4054		S.3		1		UNL1		0.1464
21		C		-1.5349		3.1286		0.0944		C.3		1		UNL1		-0.2594
22		C		-1.7030		4.5596		0.6418		C.3		1		UNL1		-0.2832
23		C		-0.6320		5.3877		-0.1235		C.3		1		UNL1		-0.2773
24		C		-0.1533		4.4936		-1.3062		C.3		1		UNL1		-0.2792
25		C		-1.1668		3.3347		-1.3802		C.3		1		UNL1		-0.2613
26		N		-3.4053		-0.4916		0.2790		N.ar		1		UNL1		-0.6522
27		C		-3.1360		-1.8749		0.1510		C.ar		1		UNL1		0.5821
28		O		-4.0661		-2.6667		0.2518		O.2		1		UNL1		-0.5206
29		H		-1.5927		-3.6853		-2.4242		H		1		UNL1		0.1558
30		H		-1.5680		-5.2812		-1.6501		H		1		UNL1		0.1387
31		H		-3.0034		-4.2483		-1.4933		H		1		UNL1		0.1721
32		H		-0.2199		-3.6375		-0.3851		H		1		UNL1		0.1452
33		H		-1.1715		-4.0395		1.8852		H		1		UNL1		0.1314
34		H		-2.7184		-4.5147		1.1530		H		1		UNL1		0.1825
35		H		-1.2578		-5.4834		0.8626		H		1		UNL1		0.1401
36		H		0.2818		-0.8398		1.9763		H		1		UNL1		0.1504
37		H		1.9361		-0.1667		3.6813		H		1		UNL1		0.1389
38		H		4.2797		0.2946		3.0145		H		1		UNL1		0.1387
39		H		5.9972		0.4540		1.3223		H		1		UNL1		0.1323
40		H		6.7363		0.2449		-1.0343		H		1		UNL1		0.1338
41		H		5.1037		-0.4591		-2.7814		H		1		UNL1		0.1359
42		H		2.7760		-0.9704		-2.1880		H		1		UNL1		0.1809
43		H		-0.7263		2.6029		0.6092		H		1		UNL1		0.1999
44		H		-2.7074		4.9335		0.4064		H		1		UNL1		0.1532
45		H		-1.5887		4.6029		1.7290		H		1		UNL1		0.1547
46		H		-1.0590		6.3306		-0.4796		H		1		UNL1		0.1461
47		H		0.2050		5.6494		0.5317		H		1		UNL1		0.1465
48		H		-0.0871		5.0451		-2.2493		H		1		UNL1		0.1454
49		H		0.8469		4.0964		-1.0982		H		1		UNL1		0.1494
50		H		-0.7646		2.4278		-1.8384		H		1		UNL1		0.1684
51		H		-2.0592		3.6362		-1.9431		H		1		UNL1		0.1462
52		H		-4.3818		-0.2655		0.4423		H		1		UNL1		0.3549
@<TRIPOS>BOND
1		41		15		1
2		29		1		1
3		48		24		1
4		42		16		1
5		51		25		1
6		50		25		1
7		15		16		ar
8		15		14		ar
9		7		6		2
10		30		1		1
11		1		31		1
12		1		2		1
13		16		17		ar
14		25		24		1
15		25		21		1
16		24		49		1
17		24		23		1
18		40		14		1
19		14		13		ar
20		6		5		1
21		6		8		1
22		46		23		1
23		32		2		1
24		2		4		1
25		2		3		1
26		5		4		ar
27		5		18		ar
28		23		47		1
29		23		22		1
30		4		27		ar
31		17		8		ar
32		17		12		ar
33		18		19		ar
34		21		20		1
35		21		43		1
36		21		22		1
37		27		28		2
38		27		26		ar
39		19		26		ar
40		19		20		1
41		26		52		1
42		8		9		ar
43		44		22		1
44		13		12		ar
45		13		39		1
46		22		45		1
47		35		3		1
48		12		11		ar
49		3		34		1
50		3		33		1
51		9		36		1
52		9		10		ar
53		11		10		ar
54		11		38		1
55		10		37		1

