@<TRIPOS>MOLECULE
LJ-2006-CPB-1249-20
 43 45 0 0 0
SMALL
MULLIKEN_CHARGES
****
Gaussian 16 #p B3LYP/6-31G* opt
@<TRIPOS>ATOM
1		C		-1.2106		-3.6348		-0.6405		C.3		1		UNL1		-0.4512
2		C		-1.4768		-2.3744		-1.4829		C.3		1		UNL1		-0.3324
3		C		-2.0259		-1.2169		-0.6808		C.ar		1		UNL1		0.0234
4		C		-1.3130		-0.1197		-0.3158		C.ar		1		UNL1		0.2369
5		C		0.1402		0.0549		-0.7713		C.2		1		UNL1		0.3233
6		O		0.3160		0.4805		-1.9026		O.2		1		UNL1		-0.4475
7		C		1.2255		-0.3273		0.1754		C.ar		1		UNL1		0.0500
8		C		0.8586		-0.9071		1.3862		C.ar		1		UNL1		-0.1981
9		C		1.8105		-1.3056		2.3439		C.ar		1		UNL1		-0.1369
10		C		3.1486		-1.1171		2.0889		C.ar		1		UNL1		-0.1733
11		C		3.5874		-0.5279		0.8743		C.ar		1		UNL1		0.1335
12		C		4.9739		-0.3388		0.6322		C.ar		1		UNL1		-0.1955
13		C		5.4147		0.2316		-0.5390		C.ar		1		UNL1		-0.1262
14		C		4.4753		0.6339		-1.5137		C.ar		1		UNL1		-0.1354
15		C		3.1204		0.4646		-1.3140		C.ar		1		UNL1		-0.1910
16		C		2.6269		-0.1207		-0.1155		C.ar		1		UNL1		0.0688
17		N		-1.8541		0.9204		0.4456		N.ar		1		UNL1		-0.5558
18		C		-1.1510		2.1810		0.6127		C.3		1		UNL1		0.0903
19		O		-1.3314		2.9473		-0.5528		O.3		1		UNL1		-0.4466
20		C		-0.7099		4.2166		-0.4617		C.3		1		UNL1		-0.2028
21		C		-3.1970		0.9100		0.8627		C.ar		1		UNL1		0.7966
22		O		-3.7054		1.8124		1.5037		O.2		1		UNL1		-0.5089
23		N		-3.8834		-0.2318		0.5009		N.ar		1		UNL1		-0.7040
24		C		-3.4298		-1.3133		-0.2677		C.ar		1		UNL1		0.6070
25		O		-4.1850		-2.2375		-0.5332		O.2		1		UNL1		-0.5061
26		H		-0.4483		-3.4493		0.1248		H		1		UNL1		0.1377
27		H		-0.8541		-4.4506		-1.2793		H		1		UNL1		0.1478
28		H		-2.1281		-3.9669		-0.1464		H		1		UNL1		0.1735
29		H		-2.2156		-2.6197		-2.2542		H		1		UNL1		0.1726
30		H		-0.5648		-2.0703		-2.0044		H		1		UNL1		0.1571
31		H		-0.1919		-1.0688		1.6016		H		1		UNL1		0.1606
32		H		1.4812		-1.7590		3.2738		H		1		UNL1		0.1470
33		H		3.8958		-1.4195		2.8188		H		1		UNL1		0.1457
34		H		5.6811		-0.6552		1.3950		H		1		UNL1		0.1375
35		H		6.4773		0.3723		-0.7161		H		1		UNL1		0.1391
36		H		4.8235		1.0835		-2.4398		H		1		UNL1		0.1411
37		H		2.4161		0.7712		-2.0733		H		1		UNL1		0.1893
38		H		-1.5796		2.6760		1.4898		H		1		UNL1		0.1815
39		H		-0.0871		1.9772		0.7934		H		1		UNL1		0.1431
40		H		-1.1212		4.8112		0.3684		H		1		UNL1		0.1430
41		H		-0.9093		4.7310		-1.4038		H		1		UNL1		0.1728
42		H		0.3795		4.1274		-0.3260		H		1		UNL1		0.1375
43		H		-4.8543		-0.2638		0.7919		H		1		UNL1		0.3551
@<TRIPOS>BOND
1		36		14		1
2		29		2		1
3		37		15		1
4		30		2		1
5		6		5		2
6		14		15		ar
7		14		13		ar
8		2		3		1
9		2		1		1
10		41		20		1
11		15		16		ar
12		27		1		1
13		5		4		1
14		5		7		1
15		35		13		1
16		3		4		ar
17		3		24		ar
18		1		28		1
19		1		26		1
20		19		20		1
21		19		18		1
22		13		12		ar
23		25		24		2
24		20		42		1
25		20		40		1
26		4		17		ar
27		24		23		ar
28		16		7		ar
29		16		11		ar
30		7		8		ar
31		17		18		1
32		17		21		ar
33		23		43		1
34		23		21		ar
35		18		39		1
36		18		38		1
37		12		11		ar
38		12		34		1
39		21		22		2
40		11		10		ar
41		8		31		1
42		8		9		ar
43		10		9		ar
44		10		33		1
45		9		32		1

