@<TRIPOS>MOLECULE
LJ-2007-EJMC-198-10
 52 54 0 0 0
SMALL
MULLIKEN_CHARGES
****
Gaussian 16 #p B3LYP/6-31G* opt
@<TRIPOS>ATOM
1		C		7.3890		-1.6973		-0.6596		C.3		1		UNL1		-0.5220
2		C		6.2799		-1.2293		0.2556		C.2		1		UNL1		0.6004
3		O		6.1563		-1.5424		1.4209		O.2		1		UNL1		-0.4739
4		O		5.4356		-0.4044		-0.4020		O.3		1		UNL1		-0.4514
5		C		4.3322		0.1523		0.3735		C.3		1		UNL1		-0.1033
6		C		3.2041		-0.8300		0.4836		C.2		1		UNL1		-0.1802
7		C		1.9810		-0.7660		-0.0661		C.2		1		UNL1		0.2073
8		C		0.9890		-1.8814		0.1635		C.3		1		UNL1		-0.5383
9		C		1.5392		0.3369		-1.0107		C.3		1		UNL1		-0.2631
10		N		0.5122		1.2805		-0.4677		N.ar		1		UNL1		-0.5477
11		C		-0.8575		1.2262		-0.7665		C.ar		1		UNL1		0.2365
12		C		-1.3594		0.0401		-1.5763		C.2		1		UNL1		0.3190
13		O		-0.8738		-0.1250		-2.6900		O.2		1		UNL1		-0.4498
14		C		-2.4690		-0.8463		-1.0942		C.ar		1		UNL1		0.0034
15		C		-3.1294		-1.5175		-2.1187		C.ar		1		UNL1		-0.1602
16		C		-4.2240		-2.3644		-1.8748		C.ar		1		UNL1		-0.1348
17		C		-4.6602		-2.5537		-0.5839		C.ar		1		UNL1		-0.1743
18		C		-4.0101		-1.9216		0.5070		C.ar		1		UNL1		0.1275
19		C		-4.4590		-2.1589		1.8343		C.ar		1		UNL1		-0.1907
20		C		-3.8296		-1.5825		2.9113		C.ar		1		UNL1		-0.1292
21		C		-2.7120		-0.7471		2.6939		C.ar		1		UNL1		-0.1377
22		C		-2.2542		-0.4915		1.4186		C.ar		1		UNL1		-0.2005
23		C		-2.8871		-1.0509		0.2727		C.ar		1		UNL1		0.1004
24		C		-1.7242		2.2291		-0.4437		C.ar		1		UNL1		0.0274
25		C		-3.1946		2.2677		-0.7704		C.3		1		UNL1		-0.5169
26		C		-1.2287		3.3894		0.3035		C.ar		1		UNL1		0.6015
27		O		-1.9074		4.3422		0.6591		O.2		1		UNL1		-0.5019
28		N		0.1288		3.3223		0.6211		N.ar		1		UNL1		-0.6975
29		C		1.0486		2.3665		0.2331		C.ar		1		UNL1		0.7851
30		O		2.2378		2.4823		0.4861		O.2		1		UNL1		-0.5146
31		H		8.0541		-2.3659		-0.1121		H		1		UNL1		0.1800
32		H		6.9671		-2.2173		-1.5259		H		1		UNL1		0.1799
33		H		7.9526		-0.8382		-1.0381		H		1		UNL1		0.1812
34		H		4.7080		0.3987		1.3705		H		1		UNL1		0.1758
35		H		4.0610		1.0716		-0.1373		H		1		UNL1		0.1898
36		H		3.4416		-1.7013		1.0921		H		1		UNL1		0.1514
37		H		1.4278		-2.6833		0.7645		H		1		UNL1		0.1645
38		H		0.6529		-2.3137		-0.7887		H		1		UNL1		0.1619
39		H		0.0908		-1.5360		0.6889		H		1		UNL1		0.1618
40		H		2.3816		0.9613		-1.3008		H		1		UNL1		0.1904
41		H		1.1207		-0.0942		-1.9180		H		1		UNL1		0.2103
42		H		-2.7832		-1.3577		-3.1339		H		1		UNL1		0.1737
43		H		-4.7211		-2.8563		-2.7055		H		1		UNL1		0.1469
44		H		-5.5102		-3.1994		-0.3771		H		1		UNL1		0.1460
45		H		-5.3127		-2.8162		1.9798		H		1		UNL1		0.1404
46		H		-4.1796		-1.7718		3.9219		H		1		UNL1		0.1428
47		H		-2.2011		-0.2997		3.5418		H		1		UNL1		0.1461
48		H		-1.3915		0.1491		1.3032		H		1		UNL1		0.1560
49		H		-3.4687		1.5974		-1.5859		H		1		UNL1		0.1585
50		H		-3.4650		3.2903		-1.0484		H		1		UNL1		0.1886
51		H		-3.8014		2.0096		0.1062		H		1		UNL1		0.1777
52		H		0.5177		4.1128		1.1235		H		1		UNL1		0.3557
@<TRIPOS>BOND
1		42		15		1
2		43		16		1
3		13		12		2
4		15		16		ar
5		15		14		ar
6		41		9		1
7		16		17		ar
8		49		25		1
9		12		14		1
10		12		11		1
11		32		1		1
12		40		9		1
13		14		23		ar
14		50		25		1
15		33		1		1
16		9		10		1
17		9		7		1
18		38		8		1
19		25		24		1
20		25		51		1
21		11		10		ar
22		11		24		ar
23		1		31		1
24		1		2		1
25		17		44		1
26		17		18		ar
27		10		29		ar
28		24		26		ar
29		4		2		1
30		4		5		1
31		35		5		1
32		7		8		1
33		7		6		2
34		8		39		1
35		8		37		1
36		29		30		2
37		29		28		ar
38		2		3		2
39		23		18		ar
40		23		22		ar
41		26		28		ar
42		26		27		2
43		5		6		1
44		5		34		1
45		6		36		1
46		18		19		ar
47		28		52		1
48		48		22		1
49		22		21		ar
50		19		45		1
51		19		20		ar
52		21		20		ar
53		21		47		1
54		20		46		1

