@<TRIPOS>MOLECULE
LJ-2006-CPB-1249-14
 49 51 0 0 0
SMALL
MULLIKEN_CHARGES
****
Gaussian 16 #p B3LYP/6-31G* opt
@<TRIPOS>ATOM
1		C		-4.5208		0.4948		0.1469		C.3		1		UNL1		-0.4513
2		C		-3.4757		0.8153		-0.9359		C.3		1		UNL1		-0.3283
3		C		-2.3407		1.6879		-0.4493		C.ar		1		UNL1		0.0269
4		C		-1.0587		1.2662		-0.2713		C.ar		1		UNL1		0.2288
5		C		-0.6208		-0.1371		-0.6973		C.2		1		UNL1		0.3062
6		O		-0.0484		-0.2097		-1.7776		O.2		1		UNL1		-0.4590
7		C		-0.9009		-1.2843		0.2002		C.ar		1		UNL1		0.0608
8		C		-1.3193		-1.0019		1.4971		C.ar		1		UNL1		-0.1935
9		C		-1.5609		-2.0180		2.4409		C.ar		1		UNL1		-0.1357
10		C		-1.3968		-3.3340		2.0762		C.ar		1		UNL1		-0.1710
11		C		-0.9826		-3.6869		0.7648		C.ar		1		UNL1		0.1331
12		C		-0.8285		-5.0520		0.4054		C.ar		1		UNL1		-0.1951
13		C		-0.4291		-5.4070		-0.8619		C.ar		1		UNL1		-0.1259
14		C		-0.1685		-4.4007		-1.8179		C.ar		1		UNL1		-0.1353
15		C		-0.3047		-3.0640		-1.5034		C.ar		1		UNL1		-0.1868
16		C		-0.7163		-2.6595		-0.2044		C.ar		1		UNL1		0.0738
17		N		-0.0329		2.1092		0.1473		N.ar		1		UNL1		-0.5491
18		C		1.3473		1.6318		0.3472		C.3		1		UNL1		-0.2021
19		C		2.1926		1.7693		-0.8953		C.2		1		UNL1		-0.0561
20		C		3.4599		1.3538		-1.0366		C.2		1		UNL1		-0.1791
21		C		4.2069		0.6726		0.0369		C.2		1		UNL1		0.6183
22		O		3.7799		0.4101		1.1493		O.2		1		UNL1		-0.5085
23		O		5.4606		0.3616		-0.3669		O.3		1		UNL1		-0.4609
24		C		6.2728		-0.3045		0.6110		C.3		1		UNL1		-0.2175
25		C		-0.2494		3.4702		0.3855		C.ar		1		UNL1		0.7755
26		O		0.6373		4.2351		0.7283		O.2		1		UNL1		-0.5105
27		N		-1.5608		3.8698		0.2079		N.ar		1		UNL1		-0.7010
28		C		-2.6556		3.0980		-0.2047		C.ar		1		UNL1		0.6039
29		O		-3.7567		3.6141		-0.3411		O.2		1		UNL1		-0.5091
30		H		-4.0798		-0.0807		0.9682		H		1		UNL1		0.1394
31		H		-4.9443		1.4173		0.5532		H		1		UNL1		0.1780
32		H		-5.3382		-0.0979		-0.2788		H		1		UNL1		0.1463
33		H		-3.0830		-0.1143		-1.3607		H		1		UNL1		0.1464
34		H		-3.9751		1.3481		-1.7539		H		1		UNL1		0.1711
35		H		-1.4598		0.0312		1.7967		H		1		UNL1		0.1611
36		H		-1.8757		-1.7559		3.4462		H		1		UNL1		0.1481
37		H		-1.5835		-4.1302		2.7930		H		1		UNL1		0.1464
38		H		-1.0352		-5.8122		1.1547		H		1		UNL1		0.1379
39		H		-0.3145		-6.4538		-1.1289		H		1		UNL1		0.1391
40		H		0.1465		-4.6818		-2.8192		H		1		UNL1		0.1410
41		H		-0.0898		-2.3069		-2.2435		H		1		UNL1		0.1853
42		H		1.3233		0.5984		0.6971		H		1		UNL1		0.1980
43		H		1.7758		2.2224		1.1589		H		1		UNL1		0.2258
44		H		1.7129		2.2579		-1.7395		H		1		UNL1		0.1673
45		H		3.9852		1.5074		-1.9736		H		1		UNL1		0.1561
46		H		6.3947		0.3201		1.5002		H		1		UNL1		0.1715
47		H		7.2348		-0.4734		0.1262		H		1		UNL1		0.1655
48		H		5.8189		-1.2546		0.9060		H		1		UNL1		0.1699
49		H		-1.7401		4.8545		0.3707		H		1		UNL1		0.3544
@<TRIPOS>BOND
1		40		14		1
2		41		15		1
3		45		20		1
4		14		15		ar
5		14		13		ar
6		6		5		2
7		34		2		1
8		44		19		1
9		15		16		ar
10		33		2		1
11		39		13		1
12		20		19		2
13		20		21		1
14		2		3		1
15		2		1		1
16		19		18		1
17		13		12		ar
18		5		4		1
19		5		7		1
20		3		4		ar
21		3		28		ar
22		23		21		1
23		23		24		1
24		29		28		2
25		32		1		1
26		4		17		ar
27		28		27		ar
28		16		7		ar
29		16		11		ar
30		21		22		2
31		47		24		1
32		1		31		1
33		1		30		1
34		17		18		1
35		17		25		ar
36		7		8		ar
37		27		49		1
38		27		25		ar
39		18		42		1
40		18		43		1
41		25		26		2
42		12		11		ar
43		12		38		1
44		24		48		1
45		24		46		1
46		11		10		ar
47		8		35		1
48		8		9		ar
49		10		9		ar
50		10		37		1
51		9		36		1

