@<TRIPOS>MOLECULE
LJ-2007-JMC-1778-4D
 30 31 0 0 0
SMALL
MULLIKEN_CHARGES
****
Gaussian 16 #p B3LYP/6-31G* opt
@<TRIPOS>ATOM
1		C		-4.8794		0.6173		1.5621		C.3		1		UNL1		-0.4434
2		C		-4.8235		-0.3381		0.3689		C.3		1		UNL1		-0.4636
3		S		-3.3687		-1.4663		0.3393		S.3		1		UNL1		0.2177
4		C		-2.0066		-0.4368		-0.1467		C.ar		1		UNL1		0.3351
5		N		-0.8353		-1.0052		-0.1008		N.ar		1		UNL1		-0.4875
6		C		0.2391		-0.2433		-0.4848		C.ar		1		UNL1		0.2041
7		C		1.5552		-1.0006		-0.5465		C.2		1		UNL1		0.3552
8		O		1.5596		-2.1010		-1.0731		O.2		1		UNL1		-0.4347
9		C		2.8042		-0.3853		-0.0043		C.ar		1		UNL1		0.0724
10		C		4.0299		-0.9604		-0.3805		C.ar		1		UNL1		-0.1518
11		C		5.2264		-0.4537		0.1143		C.ar		1		UNL1		-0.1335
12		C		5.2138		0.6250		1.0050		C.ar		1		UNL1		-0.1173
13		C		4.0008		1.1924		1.3981		C.ar		1		UNL1		-0.1350
14		C		2.7997		0.6932		0.8942		C.ar		1		UNL1		-0.1743
15		C		0.1494		1.0603		-0.8968		C.ar		1		UNL1		-0.2411
16		C		-1.1406		1.7103		-0.9766		C.ar		1		UNL1		0.6110
17		O		-1.3975		2.8495		-1.3350		O.2		1		UNL1		-0.5171
18		N		-2.1953		0.8473		-0.5637		N.ar		1		UNL1		-0.6426
19		H		-5.8057		1.2029		1.5273		H		1		UNL1		0.1654
20		H		-4.0385		1.3180		1.5720		H		1		UNL1		0.1638
21		H		-4.8595		0.0606		2.5035		H		1		UNL1		0.1778
22		H		-4.9071		0.1839		-0.5918		H		1		UNL1		0.1809
23		H		-5.6651		-1.0378		0.4003		H		1		UNL1		0.2012
24		H		4.0150		-1.8043		-1.0626		H		1		UNL1		0.1660
25		H		6.1704		-0.8980		-0.1891		H		1		UNL1		0.1412
26		H		6.1488		1.0190		1.3942		H		1		UNL1		0.1405
27		H		3.9884		2.0230		2.0983		H		1		UNL1		0.1402
28		H		1.8599		1.1326		1.2116		H		1		UNL1		0.1484
29		H		1.0175		1.6346		-1.1955		H		1		UNL1		0.1694
30		H		-3.1176		1.2628		-0.6184		H		1		UNL1		0.3515
@<TRIPOS>BOND
1		17		16		2
2		29		15		1
3		8		7		2
4		24		10		1
5		16		15		ar
6		16		18		ar
7		15		6		ar
8		30		18		1
9		22		2		1
10		18		4		ar
11		7		6		1
12		7		9		1
13		6		5		ar
14		10		9		ar
15		10		11		ar
16		25		11		1
17		4		5		ar
18		4		3		1
19		9		14		ar
20		11		12		ar
21		3		2		1
22		2		23		1
23		2		1		1
24		14		28		1
25		14		13		ar
26		12		26		1
27		12		13		ar
28		13		27		1
29		19		1		1
30		1		20		1
31		1		21		1

