@<TRIPOS>MOLECULE
LJ-2006-CPB-1249-25
 52 55 0 0 0
SMALL
MULLIKEN_CHARGES
****
Gaussian 16 #p B3LYP/6-31G* opt
@<TRIPOS>ATOM
1		C		-2.5266		3.0434		-0.6699		C.3		1		UNL1		-0.4581
2		C		-1.3066		2.4039		-1.3619		C.3		1		UNL1		-0.1495
3		C		-0.7175		3.3307		-2.4447		C.3		1		UNL1		-0.4535
4		C		-0.2403		1.9707		-0.3639		C.ar		1		UNL1		0.0489
5		C		0.1830		0.6808		-0.2395		C.ar		1		UNL1		0.2111
6		C		-0.3660		-0.3942		-1.1701		C.2		1		UNL1		0.2934
7		O		0.3026		-0.6359		-2.1685		O.2		1		UNL1		-0.4473
8		C		-1.6795		-1.0783		-0.9425		C.ar		1		UNL1		0.0101
9		C		-2.1682		-1.7373		-2.0670		C.ar		1		UNL1		-0.1581
10		C		-3.4044		-2.4039		-2.0651		C.ar		1		UNL1		-0.1342
11		C		-4.1640		-2.4198		-0.9177		C.ar		1		UNL1		-0.1742
12		C		-3.7113		-1.7866		0.2678		C.ar		1		UNL1		0.1298
13		C		-4.5033		-1.8398		1.4465		C.ar		1		UNL1		-0.1914
14		C		-4.0776		-1.2558		2.6151		C.ar		1		UNL1		-0.1289
15		C		-2.8279		-0.5987		2.6447		C.ar		1		UNL1		-0.1397
16		C		-2.0368		-0.5248		1.5179		C.ar		1		UNL1		-0.1913
17		C		-2.4448		-1.1001		0.2820		C.ar		1		UNL1		0.0917
18		N		1.1769		0.2780		0.6498		N.ar		1		UNL1		-0.5218
19		C		1.6913		-1.1114		0.7393		C.3		1		UNL1		-0.2557
20		C		3.1048		-1.2833		0.2115		C.ar		1		UNL1		0.1602
21		C		3.3986		-1.1019		-1.1470		C.ar		1		UNL1		-0.1927
22		C		4.6975		-1.2978		-1.6165		C.ar		1		UNL1		-0.1333
23		C		5.7144		-1.6797		-0.7387		C.ar		1		UNL1		-0.1257
24		C		5.4278		-1.8587		0.6152		C.ar		1		UNL1		-0.1317
25		C		4.1304		-1.6563		1.0869		C.ar		1		UNL1		-0.1598
26		C		1.7521		1.1783		1.5523		C.ar		1		UNL1		0.7877
27		O		2.5559		0.8406		2.4053		O.2		1		UNL1		-0.5111
28		N		1.3177		2.4806		1.4005		N.ar		1		UNL1		-0.7028
29		C		0.3807		2.9889		0.4897		C.ar		1		UNL1		0.6007
30		O		0.1401		4.1898		0.4813		O.2		1		UNL1		-0.5105
31		H		-2.9695		2.3579		0.0615		H		1		UNL1		0.1414
32		H		-3.2941		3.2842		-1.4149		H		1		UNL1		0.1386
33		H		-2.2430		3.9646		-0.1557		H		1		UNL1		0.1831
34		H		-1.6646		1.5032		-1.8737		H		1		UNL1		0.1334
35		H		-0.3420		4.2560		-2.0004		H		1		UNL1		0.1811
36		H		0.1049		2.8385		-2.9757		H		1		UNL1		0.1473
37		H		-1.4904		3.5877		-3.1786		H		1		UNL1		0.1389
38		H		-1.5650		-1.7128		-2.9677		H		1		UNL1		0.1754
39		H		-3.7544		-2.8949		-2.9682		H		1		UNL1		0.1470
40		H		-5.1266		-2.9251		-0.8999		H		1		UNL1		0.1459
41		H		-5.4565		-2.3608		1.4038		H		1		UNL1		0.1398
42		H		-4.6896		-1.3029		3.5111		H		1		UNL1		0.1420
43		H		-2.4799		-0.1458		3.5688		H		1		UNL1		0.1449
44		H		-1.0852		-0.0205		1.5956		H		1		UNL1		0.1576
45		H		0.9948		-1.7511		0.1945		H		1		UNL1		0.1807
46		H		1.6534		-1.3982		1.7921		H		1		UNL1		0.1849
47		H		2.6111		-0.8066		-1.8340		H		1		UNL1		0.1720
48		H		4.9143		-1.1548		-2.6719		H		1		UNL1		0.1313
49		H		6.7251		-1.8331		-1.1077		H		1		UNL1		0.1292
50		H		6.2147		-2.1469		1.3072		H		1		UNL1		0.1303
51		H		3.9128		-1.7715		2.1449		H		1		UNL1		0.1393
52		H		1.7430		3.1561		2.0258		H		1		UNL1		0.3536
@<TRIPOS>BOND
1		37		3		1
2		36		3		1
3		39		10		1
4		38		9		1
5		48		22		1
6		3		35		1
7		3		2		1
8		7		6		2
9		9		10		ar
10		9		8		ar
11		10		11		ar
12		34		2		1
13		47		21		1
14		22		21		ar
15		22		23		ar
16		32		1		1
17		2		1		1
18		2		4		1
19		6		8		1
20		6		5		1
21		21		20		ar
22		49		23		1
23		8		17		ar
24		11		40		1
25		11		12		ar
26		23		24		ar
27		1		33		1
28		1		31		1
29		4		5		ar
30		4		29		ar
31		5		18		ar
32		45		19		1
33		20		19		1
34		20		25		ar
35		12		17		ar
36		12		13		ar
37		17		16		ar
38		30		29		2
39		29		28		ar
40		24		25		ar
41		24		50		1
42		18		19		1
43		18		26		ar
44		19		46		1
45		25		51		1
46		28		26		ar
47		28		52		1
48		41		13		1
49		13		14		ar
50		16		44		1
51		16		15		ar
52		26		27		2
53		14		15		ar
54		14		42		1
55		15		43		1

