@<TRIPOS>MOLECULE
LJ-2007-JMC-1778-3E
 50 53 0 0 0
SMALL
MULLIKEN_CHARGES
****
Gaussian 16 #p B3LYP/6-31G* opt
@<TRIPOS>ATOM
1		C		2.5091		3.3404		1.1582		C.3		1		UNL1		-0.5552
2		C		1.4239		2.5954		0.4186		C.ar		1		UNL1		0.0388
3		C		1.0542		1.2813		0.5680		C.ar		1		UNL1		0.2473
4		C		1.6280		0.2300		1.5367		C.3		1		UNL1		-0.3261
5		C		2.6335		0.6823		2.5103		C.1		1		UNL1		0.3782
6		N		3.4077		0.9656		3.3275		N.1		1		UNL1		-0.4924
7		C		2.0753		-1.0622		0.8301		C.ar		1		UNL1		0.1234
8		C		1.2924		-2.1869		0.9995		C.ar		1		UNL1		-0.2031
9		C		1.6308		-3.4176		0.3913		C.ar		1		UNL1		-0.1410
10		C		2.7582		-3.5137		-0.3878		C.ar		1		UNL1		-0.1852
11		C		3.5891		-2.3819		-0.5995		C.ar		1		UNL1		0.1394
12		C		4.7508		-2.4677		-1.4126		C.ar		1		UNL1		-0.1952
13		C		5.5519		-1.3701		-1.6255		C.ar		1		UNL1		-0.1308
14		C		5.2199		-0.1321		-1.0283		C.ar		1		UNL1		-0.1433
15		C		4.1023		-0.0155		-0.2321		C.ar		1		UNL1		-0.1784
16		C		3.2504		-1.1270		0.0135		C.ar		1		UNL1		0.0923
17		N		0.0116		0.6978		-0.1246		N.ar		1		UNL1		-0.4950
18		C		-0.6591		1.4144		-0.9605		C.ar		1		UNL1		0.3350
19		S		-2.0439		0.7506		-1.8679		S.3		1		UNL1		0.1637
20		C		-2.1209		-0.9481		-1.1605		C.3		1		UNL1		-0.5439
21		C		-2.8875		-1.0433		0.1640		C.2		1		UNL1		0.4266
22		O		-2.2770		-1.3320		1.1816		O.2		1		UNL1		-0.4441
23		C		-4.3647		-0.8132		0.1899		C.ar		1		UNL1		0.0843
24		C		-5.1373		-0.6356		-0.9687		C.ar		1		UNL1		-0.1724
25		C		-6.5162		-0.4522		-0.8758		C.ar		1		UNL1		-0.1345
26		C		-7.1370		-0.4399		0.3745		C.ar		1		UNL1		-0.1175
27		C		-6.3764		-0.6163		1.5344		C.ar		1		UNL1		-0.1304
28		C		-5.0016		-0.8047		1.4422		C.ar		1		UNL1		-0.1547
29		N		-0.3671		2.7199		-1.2071		N.ar		1		UNL1		-0.6536
30		C		0.6785		3.4082		-0.5537		C.ar		1		UNL1		0.5795
31		O		0.8766		4.5842		-0.8266		O.2		1		UNL1		-0.5155
32		H		2.5652		4.3524		0.7532		H		1		UNL1		0.1966
33		H		2.3020		3.4077		2.2304		H		1		UNL1		0.1848
34		H		3.4923		2.8732		1.0531		H		1		UNL1		0.1844
35		H		0.7576		-0.0573		2.1417		H		1		UNL1		0.2278
36		H		0.3819		-2.1217		1.5882		H		1		UNL1		0.1644
37		H		0.9934		-4.2830		0.5495		H		1		UNL1		0.1351
38		H		3.0307		-4.4565		-0.8562		H		1		UNL1		0.1324
39		H		4.9949		-3.4251		-1.8669		H		1		UNL1		0.1316
40		H		6.4378		-1.4499		-2.2495		H		1		UNL1		0.1334
41		H		5.8529		0.7346		-1.1971		H		1		UNL1		0.1352
42		H		3.8727		0.9441		0.2140		H		1		UNL1		0.1391
43		H		-1.0975		-1.2812		-0.9871		H		1		UNL1		0.2486
44		H		-2.5840		-1.5573		-1.9422		H		1		UNL1		0.2015
45		H		-4.6745		-0.6420		-1.9505		H		1		UNL1		0.1348
46		H		-7.1048		-0.3180		-1.7789		H		1		UNL1		0.1423
47		H		-8.2115		-0.2941		0.4453		H		1		UNL1		0.1440
48		H		-6.8582		-0.6077		2.5081		H		1		UNL1		0.1445
49		H		-4.3938		-0.9494		2.3292		H		1		UNL1		0.1672
50		H		-0.9031		3.2762		-1.8655		H		1		UNL1		0.3561
@<TRIPOS>BOND
1		40		13		1
2		45		24		1
3		44		20		1
4		19		20		1
5		19		18		1
6		39		12		1
7		50		29		1
8		46		25		1
9		13		12		ar
10		13		14		ar
11		12		11		ar
12		29		18		ar
13		29		30		ar
14		41		14		1
15		20		43		1
16		20		21		1
17		14		15		ar
18		24		25		ar
19		24		23		ar
20		18		17		ar
21		25		26		ar
22		38		10		1
23		31		30		2
24		11		10		ar
25		11		16		ar
26		30		2		ar
27		10		9		ar
28		15		16		ar
29		15		42		1
30		17		3		ar
31		16		7		ar
32		21		23		1
33		21		22		2
34		23		28		ar
35		26		47		1
36		26		27		ar
37		9		37		1
38		9		8		ar
39		2		3		ar
40		2		1		1
41		3		4		1
42		32		1		1
43		7		8		ar
44		7		4		1
45		8		36		1
46		34		1		1
47		1		33		1
48		28		27		ar
49		28		49		1
50		27		48		1
51		4		35		1
52		4		5		1
53		5		6		3

