@<TRIPOS>MOLECULE
LJ-2007-EJMC-198-13
 47 50 0 0 0
SMALL
MULLIKEN_CHARGES
****
Gaussian 16 #p B3LYP/6-31G* opt
@<TRIPOS>ATOM
1		C		-1.1786		3.3419		-1.7102		C.3		1		UNL1		-0.5101
2		C		-1.7828		2.2986		-0.8099		C.ar		1		UNL1		0.0123
3		C		-1.1642		1.1610		-0.4009		C.ar		1		UNL1		0.2479
4		C		0.2516		0.8335		-0.8826		C.2		1		UNL1		0.3301
5		O		0.3847		0.4607		-2.0373		O.2		1		UNL1		-0.4451
6		C		1.3773		1.0357		0.0749		C.ar		1		UNL1		0.0343
7		C		1.1336		1.7917		1.2162		C.ar		1		UNL1		-0.1931
8		C		2.1433		2.0639		2.1594		C.ar		1		UNL1		-0.1358
9		C		3.4077		1.5588		1.9657		C.ar		1		UNL1		-0.1742
10		C		3.7152		0.7699		0.8259		C.ar		1		UNL1		0.1330
11		C		5.0230		0.2452		0.6480		C.ar		1		UNL1		-0.1954
12		C		5.3319		-0.5236		-0.4496		C.ar		1		UNL1		-0.1265
13		C		4.3359		-0.7943		-1.4140		C.ar		1		UNL1		-0.1362
14		C		3.0561		-0.2975		-1.2771		C.ar		1		UNL1		-0.1914
15		C		2.6992		0.4996		-0.1544		C.ar		1		UNL1		0.0739
16		N		-1.7675		0.2359		0.4580		N.ar		1		UNL1		-0.5553
17		C		-1.1836		-1.0822		0.6675		C.3		1		UNL1		0.0771
18		O		-1.3464		-1.8248		-0.5180		O.3		1		UNL1		-0.4596
19		C		-0.5536		-3.0120		-0.5748		C.3		1		UNL1		-0.0464
20		C		-0.9971		-4.1030		0.3733		C.3		1		UNL1		-0.1145
21		C		-0.9108		-5.5464		-0.0711		C.3		1		UNL1		-0.3213
22		C		-2.2547		-4.8798		0.0739		C.3		1		UNL1		-0.2991
23		C		-3.0784		0.4149		0.9324		C.ar		1		UNL1		0.7925
24		O		-3.6482		-0.3851		1.6539		O.2		1		UNL1		-0.5095
25		N		-3.6626		1.5986		0.5260		N.ar		1		UNL1		-0.7020
26		C		-3.1419		2.5749		-0.3339		C.ar		1		UNL1		0.6032
27		O		-3.8002		3.5635		-0.6209		O.2		1		UNL1		-0.5000
28		H		-1.1186		4.3072		-1.1943		H		1		UNL1		0.1701
29		H		-1.8216		3.4973		-2.5832		H		1		UNL1		0.1835
30		H		-0.1843		3.0640		-2.0624		H		1		UNL1		0.1653
31		H		0.1426		2.2013		1.3808		H		1		UNL1		0.1578
32		H		1.9160		2.6695		3.0314		H		1		UNL1		0.1463
33		H		4.1963		1.7575		2.6876		H		1		UNL1		0.1449
34		H		5.7760		0.4632		1.4014		H		1		UNL1		0.1373
35		H		6.3348		-0.9213		-0.5771		H		1		UNL1		0.1388
36		H		4.5813		-1.4004		-2.2819		H		1		UNL1		0.1405
37		H		2.3117		-0.4974		-2.0344		H		1		UNL1		0.1865
38		H		-1.7148		-1.5249		1.5126		H		1		UNL1		0.1921
39		H		-0.1199		-0.9727		0.9169		H		1		UNL1		0.1429
40		H		0.5051		-2.7561		-0.4007		H		1		UNL1		0.1315
41		H		-0.6469		-3.3544		-1.6102		H		1		UNL1		0.1500
42		H		-0.7833		-3.9190		1.4252		H		1		UNL1		0.1430
43		H		-0.5451		-5.7487		-1.0752		H		1		UNL1		0.1518
44		H		-0.6162		-6.2909		0.6631		H		1		UNL1		0.1540
45		H		-2.8898		-5.1676		0.9067		H		1		UNL1		0.1573
46		H		-2.7999		-4.6205		-0.8299		H		1		UNL1		0.1623
47		H		-4.6062		1.7530		0.8636		H		1		UNL1		0.3549
@<TRIPOS>BOND
1		29		1		1
2		36		13		1
3		30		1		1
4		5		4		2
5		37		14		1
6		1		28		1
7		1		2		1
8		41		19		1
9		13		14		ar
10		13		12		ar
11		14		15		ar
12		43		21		1
13		4		3		1
14		4		6		1
15		46		22		1
16		2		3		ar
17		2		26		ar
18		27		26		2
19		35		12		1
20		19		18		1
21		19		40		1
22		19		20		1
23		18		17		1
24		12		11		ar
25		3		16		ar
26		26		25		ar
27		15		6		ar
28		15		10		ar
29		21		22		1
30		21		20		1
31		21		44		1
32		22		20		1
33		22		45		1
34		6		7		ar
35		20		42		1
36		16		17		1
37		16		23		ar
38		25		47		1
39		25		23		ar
40		11		10		ar
41		11		34		1
42		17		39		1
43		17		38		1
44		10		9		ar
45		23		24		2
46		7		31		1
47		7		8		ar
48		9		8		ar
49		9		33		1
50		8		32		1

