@<TRIPOS>MOLECULE
LJ-2007-JMC-1778-3D
 42 44 0 0 0
SMALL
MULLIKEN_CHARGES
****
Gaussian 16 #p B3LYP/6-31G* opt
@<TRIPOS>ATOM
1		C		6.1204		-0.5804		0.0032		C.2		1		UNL1		-0.3235
2		C		5.8740		0.4036		-0.8624		C.2		1		UNL1		-0.0861
3		C		4.8758		1.5267		-0.7153		C.3		1		UNL1		-0.5019
4		S		3.7630		1.5144		0.7505		S.3		1		UNL1		0.1990
5		C		2.5119		0.3311		0.2970		C.ar		1		UNL1		0.3177
6		N		1.3699		0.4342		0.9080		N.ar		1		UNL1		-0.5139
7		C		0.3889		-0.4878		0.6078		C.ar		1		UNL1		0.2411
8		C		-0.8816		-0.2166		1.4419		C.3		1		UNL1		-0.3246
9		C		-1.3794		-1.4303		2.1026		C.1		1		UNL1		0.3833
10		N		-1.7030		-2.3792		2.6886		N.1		1		UNL1		-0.5001
11		C		-1.8906		0.6927		0.7009		C.ar		1		UNL1		0.0979
12		C		-1.4877		2.0153		0.6145		C.ar		1		UNL1		-0.1889
13		C		-2.2484		2.9887		-0.0652		C.ar		1		UNL1		-0.1339
14		C		-3.4354		2.6351		-0.6578		C.ar		1		UNL1		-0.1853
15		C		-3.9049		1.2991		-0.5876		C.ar		1		UNL1		0.1353
16		C		-5.1396		0.9441		-1.1958		C.ar		1		UNL1		-0.1940
17		C		-5.6212		-0.3413		-1.1368		C.ar		1		UNL1		-0.1299
18		C		-4.8781		-1.3305		-0.4541		C.ar		1		UNL1		-0.1445
19		C		-3.6761		-1.0242		0.1449		C.ar		1		UNL1		-0.2089
20		C		-3.1338		0.2935		0.1012		C.ar		1		UNL1		0.0829
21		C		0.5261		-1.4816		-0.3301		C.ar		1		UNL1		0.0787
22		C		-0.5223		-2.4892		-0.7190		C.3		1		UNL1		-0.5661
23		C		1.8138		-1.6068		-1.0123		C.ar		1		UNL1		0.5717
24		O		2.1275		-2.4468		-1.8452		O.2		1		UNL1		-0.5165
25		N		2.7679		-0.6376		-0.6195		N.ar		1		UNL1		-0.6396
26		H		6.8755		-1.3322		-0.2054		H		1		UNL1		0.1626
27		H		5.5893		-0.6631		0.9479		H		1		UNL1		0.1785
28		H		6.4415		0.4503		-1.7932		H		1		UNL1		0.1564
29		H		4.2576		1.6163		-1.6165		H		1		UNL1		0.2010
30		H		5.4066		2.4830		-0.6222		H		1		UNL1		0.2089
31		H		-0.5073		0.3923		2.2726		H		1		UNL1		0.2281
32		H		-0.5459		2.3073		1.0699		H		1		UNL1		0.1575
33		H		-1.8893		4.0130		-0.1092		H		1		UNL1		0.1351
34		H		-4.0364		3.3725		-1.1844		H		1		UNL1		0.1334
35		H		-5.6998		1.7206		-1.7115		H		1		UNL1		0.1321
36		H		-6.5672		-0.5975		-1.6057		H		1		UNL1		0.1338
37		H		-5.2591		-2.3462		-0.3942		H		1		UNL1		0.1381
38		H		-3.1519		-1.8083		0.6720		H		1		UNL1		0.1674
39		H		-0.1612		-3.0586		-1.5776		H		1		UNL1		0.1947
40		H		-0.7292		-3.1937		0.0948		H		1		UNL1		0.1881
41		H		-1.4666		-2.0087		-0.9900		H		1		UNL1		0.1763
42		H		3.7012		-0.7726		-0.9999		H		1		UNL1		0.3580
@<TRIPOS>BOND
1		24		23		2
2		28		2		1
3		35		16		1
4		29		3		1
5		36		17		1
6		39		22		1
7		16		17		ar
8		16		15		ar
9		34		14		1
10		17		18		ar
11		23		25		ar
12		23		21		ar
13		42		25		1
14		41		22		1
15		2		3		1
16		2		1		2
17		22		21		1
18		22		40		1
19		3		30		1
20		3		4		1
21		14		15		ar
22		14		13		ar
23		25		5		ar
24		15		20		ar
25		18		37		1
26		18		19		ar
27		21		7		ar
28		26		1		1
29		33		13		1
30		13		12		ar
31		1		27		1
32		20		19		ar
33		20		11		ar
34		19		38		1
35		5		4		1
36		5		6		ar
37		7		6		ar
38		7		8		1
39		12		11		ar
40		12		32		1
41		11		8		1
42		8		9		1
43		8		31		1
44		9		10		3

