@<TRIPOS>MOLECULE
LJ-2007-JMC-1778-3P
 51 54 0 0 0
SMALL
MULLIKEN_CHARGES
****
Gaussian 16 #p B3LYP/6-31G* opt
@<TRIPOS>ATOM
1		C		-4.5985		1.8896		-1.3131		C.3		1		UNL1		-0.4523
2		C		-3.7069		2.4359		-0.1821		C.3		1		UNL1		-0.3301
3		C		-2.2514		2.0740		-0.3445		C.ar		1		UNL1		0.0625
4		C		-1.5561		1.1264		0.3621		C.ar		1		UNL1		0.2438
5		C		-2.1614		0.2460		1.4799		C.3		1		UNL1		-0.3207
6		C		-2.4430		1.0869		2.6546		C.1		1		UNL1		0.3696
7		N		-2.6470		1.7569		3.5807		N.1		1		UNL1		-0.4885
8		C		-3.3513		-0.6457		1.0912		C.ar		1		UNL1		0.1147
9		C		-4.5930		-0.4645		1.6652		C.ar		1		UNL1		-0.2059
10		C		-5.6914		-1.2896		1.3284		C.ar		1		UNL1		-0.1387
11		C		-5.5378		-2.3046		0.4172		C.ar		1		UNL1		-0.1825
12		C		-4.2745		-2.5473		-0.1849		C.ar		1		UNL1		0.1343
13		C		-4.0982		-3.6101		-1.1105		C.ar		1		UNL1		-0.1944
14		C		-2.8714		-3.8610		-1.6799		C.ar		1		UNL1		-0.1292
15		C		-1.7631		-3.0523		-1.3405		C.ar		1		UNL1		-0.1411
16		C		-1.8989		-2.0083		-0.4509		C.ar		1		UNL1		-0.2046
17		C		-3.1535		-1.7149		0.1538		C.ar		1		UNL1		0.0813
18		N		-0.2088		0.8635		0.1897		N.ar		1		UNL1		-0.5311
19		C		0.4401		1.5548		-0.6996		C.ar		1		UNL1		0.3292
20		S		2.1748		1.3193		-0.9954		S.3		1		UNL1		0.1675
21		C		2.5792		0.0645		0.3098		C.3		1		UNL1		-0.4943
22		C		4.0637		-0.1907		0.2991		C.ar		1		UNL1		0.1383
23		C		4.6079		-1.2105		-0.4920		C.ar		1		UNL1		-0.1603
24		C		5.9801		-1.4551		-0.5065		C.ar		1		UNL1		-0.1280
25		C		6.8175		-0.6648		0.2799		C.ar		1		UNL1		-0.0639
26		CL		8.5479		-0.9667		0.2726		Cl		1		UNL1		-0.0131
27		C		6.3030		0.3593		1.0747		C.ar		1		UNL1		-0.1285
28		C		4.9288		0.5902		1.0767		C.ar		1		UNL1		-0.1582
29		N		-0.1604		2.5081		-1.4632		N.ar		1		UNL1		-0.6504
30		C		-1.5285		2.8437		-1.3580		C.ar		1		UNL1		0.5879
31		O		-1.9906		3.7202		-2.0755		O.2		1		UNL1		-0.5140
32		H		-5.6356		2.2085		-1.1613		H		1		UNL1		0.1462
33		H		-4.2638		2.2718		-2.2815		H		1		UNL1		0.1718
34		H		-4.5796		0.7956		-1.3410		H		1		UNL1		0.1550
35		H		-3.7739		3.5300		-0.1842		H		1		UNL1		0.1719
36		H		-4.0797		2.0953		0.7856		H		1		UNL1		0.1493
37		H		-1.3343		-0.4082		1.7817		H		1		UNL1		0.2168
38		H		-4.7378		0.3243		2.3971		H		1		UNL1		0.1597
39		H		-6.6539		-1.1100		1.7987		H		1		UNL1		0.1406
40		H		-6.3764		-2.9427		0.1495		H		1		UNL1		0.1359
41		H		-4.9580		-4.2281		-1.3581		H		1		UNL1		0.1352
42		H		-2.7506		-4.6784		-2.3853		H		1		UNL1		0.1347
43		H		-0.7934		-3.2553		-1.7872		H		1		UNL1		0.1296
44		H		-1.0310		-1.4024		-0.2148		H		1		UNL1		0.1610
45		H		2.2344		0.4669		1.2640		H		1		UNL1		0.2113
46		H		2.0069		-0.8389		0.0917		H		1		UNL1		0.2046
47		H		3.9526		-1.8259		-1.1033		H		1		UNL1		0.1447
48		H		6.3960		-2.2493		-1.1171		H		1		UNL1		0.1618
49		H		6.9679		0.9630		1.6829		H		1		UNL1		0.1632
50		H		4.5249		1.3878		1.6951		H		1		UNL1		0.1496
51		H		0.3635		3.0481		-2.1452		H		1		UNL1		0.3577
@<TRIPOS>BOND
1		42		14		1
2		33		1		1
3		51		29		1
4		31		30		2
5		43		15		1
6		14		15		ar
7		14		13		ar
8		29		30		ar
9		29		19		ar
10		41		13		1
11		30		3		ar
12		34		1		1
13		15		16		ar
14		1		32		1
15		1		2		1
16		48		24		1
17		13		12		ar
18		47		23		1
19		20		19		1
20		20		21		1
21		19		18		ar
22		24		23		ar
23		24		25		ar
24		23		22		ar
25		16		44		1
26		16		17		ar
27		3		2		1
28		3		4		ar
29		12		17		ar
30		12		11		ar
31		35		2		1
32		2		36		1
33		46		21		1
34		40		11		1
35		17		8		ar
36		18		4		ar
37		26		25		1
38		25		27		ar
39		22		21		1
40		22		28		ar
41		21		45		1
42		4		5		1
43		11		10		ar
44		27		28		ar
45		27		49		1
46		28		50		1
47		8		5		1
48		8		9		ar
49		10		9		ar
50		10		39		1
51		5		37		1
52		5		6		1
53		9		38		1
54		6		7		3

