@<TRIPOS>MOLECULE
LJ-2007-EJMC-198-24
 53 55 0 0 0
SMALL
MULLIKEN_CHARGES
****
Gaussian 16 #p B3LYP/6-31G* opt
@<TRIPOS>ATOM
1		C		3.5020		-3.3177		0.2140		C.3		1		UNL1		-0.4476
2		C		2.6850		-2.3350		1.0731		C.3		1		UNL1		-0.3296
3		C		2.7325		-0.9218		0.5379		C.ar		1		UNL1		0.0117
4		C		1.7750		-0.3569		-0.2481		C.ar		1		UNL1		0.2437
5		C		0.5772		-1.1887		-0.7193		C.2		1		UNL1		0.3160
6		O		0.6728		-1.6612		-1.8459		O.2		1		UNL1		-0.4639
7		C		-0.5923		-1.3690		0.1799		C.ar		1		UNL1		0.0569
8		C		-0.5306		-0.8063		1.4519		C.ar		1		UNL1		-0.1989
9		C		-1.5916		-0.9117		2.3700		C.ar		1		UNL1		-0.1369
10		C		-2.7346		-1.5866		2.0096		C.ar		1		UNL1		-0.1729
11		C		-2.8608		-2.1835		0.7280		C.ar		1		UNL1		0.1319
12		C		-4.0503		-2.8762		0.3787		C.ar		1		UNL1		-0.1952
13		C		-4.1887		-3.4626		-0.8575		C.ar		1		UNL1		-0.1260
14		C		-3.1326		-3.3744		-1.7906		C.ar		1		UNL1		-0.1343
15		C		-1.9620		-2.7097		-1.4861		C.ar		1		UNL1		-0.1909
16		C		-1.7823		-2.0896		-0.2190		C.ar		1		UNL1		0.0675
17		N		1.9057		0.9175		-0.8054		N.ar		1		UNL1		-0.5663
18		C		0.9043		1.5484		-1.7005		C.3		1		UNL1		0.0835
19		O		0.2862		2.6740		-1.1593		O.3		1		UNL1		-0.4462
20		C		-0.6996		2.4191		-0.1538		C.3		1		UNL1		-0.0778
21		C		-1.3090		3.7344		0.2260		C.2		1		UNL1		-0.1741
22		C		-2.6092		4.0390		0.3468		C.2		1		UNL1		0.1920
23		C		-3.7521		3.0839		0.1022		C.3		1		UNL1		-0.5164
24		C		-3.0341		5.4261		0.7669		C.3		1		UNL1		-0.5066
25		C		3.0868		1.6637		-0.6480		C.ar		1		UNL1		0.7902
26		O		3.2845		2.7222		-1.2145		O.2		1		UNL1		-0.4989
27		N		4.0074		1.0927		0.2129		N.ar		1		UNL1		-0.7024
28		C		3.9517		-0.1614		0.8299		C.ar		1		UNL1		0.6082
29		O		4.8719		-0.5457		1.5389		O.2		1		UNL1		-0.5103
30		H		3.1081		-3.3655		-0.8071		H		1		UNL1		0.1552
31		H		3.4641		-4.3248		0.6446		H		1		UNL1		0.1452
32		H		4.5502		-3.0074		0.1685		H		1		UNL1		0.1702
33		H		1.6508		-2.6845		1.1459		H		1		UNL1		0.1399
34		H		3.0949		-2.3243		2.0888		H		1		UNL1		0.1694
35		H		0.3680		-0.2794		1.7526		H		1		UNL1		0.1625
36		H		-1.4994		-0.4609		3.3533		H		1		UNL1		0.1489
37		H		-3.5641		-1.6756		2.7073		H		1		UNL1		0.1471
38		H		-4.8509		-2.9334		1.1120		H		1		UNL1		0.1385
39		H		-5.1017		-3.9911		-1.1165		H		1		UNL1		0.1404
40		H		-3.2403		-3.8391		-2.7669		H		1		UNL1		0.1426
41		H		-1.1635		-2.6572		-2.2112		H		1		UNL1		0.1888
42		H		1.4411		1.8994		-2.5809		H		1		UNL1		0.1939
43		H		0.1812		0.7793		-1.9842		H		1		UNL1		0.1613
44		H		-0.2161		1.9603		0.7237		H		1		UNL1		0.1334
45		H		-1.4417		1.7007		-0.5288		H		1		UNL1		0.1325
46		H		-0.5706		4.5088		0.4306		H		1		UNL1		0.1381
47		H		-3.4343		2.1060		-0.2669		H		1		UNL1		0.1563
48		H		-4.3239		2.9206		1.0264		H		1		UNL1		0.1544
49		H		-4.4563		3.5082		-0.6262		H		1		UNL1		0.1573
50		H		-3.6250		5.3961		1.6932		H		1		UNL1		0.1504
51		H		-3.6763		5.8866		0.0034		H		1		UNL1		0.1546
52		H		-2.1759		6.0843		0.9320		H		1		UNL1		0.1584
53		H		4.8595		1.6257		0.3482		H		1		UNL1		0.3539
@<TRIPOS>BOND
1		40		14		1
2		42		18		1
3		41		15		1
4		43		18		1
5		6		5		2
6		14		15		ar
7		14		13		ar
8		18		19		1
9		18		17		1
10		15		16		ar
11		26		25		2
12		19		20		1
13		39		13		1
14		13		12		ar
15		30		1		1
16		17		25		ar
17		17		4		ar
18		5		4		1
19		5		7		1
20		25		27		ar
21		49		23		1
22		45		20		1
23		47		23		1
24		4		3		ar
25		16		7		ar
26		16		11		ar
27		20		21		1
28		20		44		1
29		51		24		1
30		23		22		1
31		23		48		1
32		32		1		1
33		7		8		ar
34		27		53		1
35		27		28		ar
36		1		31		1
37		1		2		1
38		21		22		2
39		21		46		1
40		22		24		1
41		12		11		ar
42		12		38		1
43		3		28		ar
44		3		2		1
45		11		10		ar
46		24		52		1
47		24		50		1
48		28		29		2
49		2		33		1
50		2		34		1
51		8		35		1
52		8		9		ar
53		10		9		ar
54		10		37		1
55		9		36		1

