@<TRIPOS>MOLECULE
LJ-2007-JMC-1778-4I
 43 45 0 0 0
SMALL
MULLIKEN_CHARGES
****
Gaussian 16 #p B3LYP/6-31G* opt
@<TRIPOS>ATOM
1		C		2.9010		-3.2034		1.3164		C.2		1		UNL1		-0.3271
2		C		3.8603		-3.0575		0.3997		C.2		1		UNL1		-0.0491
3		C		3.6186		-2.5374		-0.9837		C.3		1		UNL1		-0.4674
4		S		4.2674		-0.8097		-1.2256		S.3		1		UNL1		0.1351
5		C		2.9584		0.1120		-0.4506		C.ar		1		UNL1		0.3401
6		N		1.7658		-0.3808		-0.3051		N.ar		1		UNL1		-0.4941
7		C		0.8211		0.4173		0.3016		C.ar		1		UNL1		0.1082
8		C		-0.4798		-0.3377		0.5705		C.2		1		UNL1		0.3608
9		O		-0.4469		-1.1667		1.4708		O.2		1		UNL1		-0.4603
10		C		-1.6700		-0.0612		-0.2787		C.ar		1		UNL1		0.0477
11		C		-1.4705		0.6573		-1.4517		C.ar		1		UNL1		-0.1911
12		C		-2.5231		0.9317		-2.3472		C.ar		1		UNL1		-0.1364
13		C		-3.7941		0.4959		-2.0548		C.ar		1		UNL1		-0.1749
14		C		-4.0630		-0.2346		-0.8672		C.ar		1		UNL1		0.1341
15		C		-5.3830		-0.6699		-0.5756		C.ar		1		UNL1		-0.1964
16		C		-5.6556		-1.3780		0.5714		C.ar		1		UNL1		-0.1269
17		C		-4.6087		-1.6769		1.4717		C.ar		1		UNL1		-0.1364
18		C		-3.3140		-1.2728		1.2198		C.ar		1		UNL1		-0.1867
19		C		-2.9944		-0.5378		0.0450		C.ar		1		UNL1		0.0694
20		C		1.0353		1.7013		0.7324		C.ar		1		UNL1		0.0774
21		C		0.0097		2.5730		1.4158		C.3		1		UNL1		-0.3297
22		C		-0.4704		3.7543		0.5534		C.3		1		UNL1		-0.4529
23		C		2.3711		2.2650		0.5625		C.ar		1		UNL1		0.5820
24		O		2.7484		3.3793		0.9031		O.2		1		UNL1		-0.5195
25		N		3.2840		1.3719		-0.0446		N.ar		1		UNL1		-0.6481
26		H		1.8681		-2.9282		1.1211		H		1		UNL1		0.1808
27		H		3.1276		-3.5859		2.3082		H		1		UNL1		0.1456
28		H		4.8919		-3.3091		0.6435		H		1		UNL1		0.1375
29		H		4.1523		-3.1158		-1.7446		H		1		UNL1		0.1857
30		H		2.5574		-2.5044		-1.2340		H		1		UNL1		0.2229
31		H		-0.4733		1.0065		-1.6961		H		1		UNL1		0.1566
32		H		-2.3236		1.4860		-3.2594		H		1		UNL1		0.1420
33		H		-4.6177		0.7049		-2.7336		H		1		UNL1		0.1413
34		H		-6.1760		-0.4290		-1.2795		H		1		UNL1		0.1341
35		H		-6.6686		-1.7064		0.7868		H		1		UNL1		0.1354
36		H		-4.8249		-2.2366		2.3778		H		1		UNL1		0.1374
37		H		-2.5212		-1.5213		1.9105		H		1		UNL1		0.1833
38		H		0.4653		2.9722		2.3305		H		1		UNL1		0.1695
39		H		-0.8474		1.9665		1.7268		H		1		UNL1		0.1479
40		H		0.3751		4.3841		0.2637		H		1		UNL1		0.1772
41		H		-1.1793		4.3709		1.1170		H		1		UNL1		0.1466
42		H		-0.9752		3.4035		-0.3533		H		1		UNL1		0.1425
43		H		4.2365		1.7148		-0.1228		H		1		UNL1		0.3559
@<TRIPOS>BOND
1		32		12		1
2		33		13		1
3		12		13		ar
4		12		11		ar
5		13		14		ar
6		29		3		1
7		31		11		1
8		11		10		ar
9		34		15		1
10		30		3		1
11		4		3		1
12		4		5		1
13		3		2		1
14		14		15		ar
15		14		19		ar
16		15		16		ar
17		5		6		ar
18		5		25		ar
19		42		22		1
20		6		7		ar
21		10		19		ar
22		10		8		1
23		43		25		1
24		25		23		ar
25		19		18		ar
26		40		22		1
27		7		8		1
28		7		20		ar
29		2		28		1
30		2		1		2
31		22		41		1
32		22		21		1
33		23		20		ar
34		23		24		2
35		8		9		2
36		16		35		1
37		16		17		ar
38		20		21		1
39		26		1		1
40		18		17		ar
41		18		37		1
42		1		27		1
43		21		39		1
44		21		38		1
45		17		36		1

