@<TRIPOS>MOLECULE
LJ-2007-JMC-1778-4F
 34 35 0 0 0
SMALL
MULLIKEN_CHARGES
****
Gaussian 16 #p B3LYP/6-31G* opt
@<TRIPOS>ATOM
1		C		0.4825		3.6489		1.3804		C.2		1		UNL1		-0.3284
2		C		0.0590		3.5806		0.1197		C.2		1		UNL1		-0.0480
3		C		0.7509		2.9495		-1.0607		C.3		1		UNL1		-0.4803
4		S		2.3840		2.1762		-0.7416		S.3		1		UNL1		0.1512
5		C		1.8892		0.5102		-0.3462		C.ar		1		UNL1		0.3348
6		N		0.6770		0.0848		-0.5130		N.ar		1		UNL1		-0.5111
7		C		0.4084		-1.2373		-0.2097		C.ar		1		UNL1		0.1539
8		C		-1.0122		-1.6708		-0.5148		C.2		1		UNL1		0.3570
9		O		-1.1929		-2.7458		-1.0722		O.2		1		UNL1		-0.4601
10		C		-2.1675		-0.7971		-0.1420		C.ar		1		UNL1		0.0794
11		C		-2.0634		0.2981		0.7303		C.ar		1		UNL1		-0.1573
12		C		-3.2002		1.0270		1.0783		C.ar		1		UNL1		-0.1438
13		C		-4.4468		0.6775		0.5560		C.ar		1		UNL1		-0.1177
14		C		-4.5590		-0.4120		-0.3133		C.ar		1		UNL1		-0.1351
15		C		-3.4287		-1.1477		-0.6536		C.ar		1		UNL1		-0.1544
16		C		1.3421		-2.1290		0.2617		C.ar		1		UNL1		0.0563
17		C		1.1094		-3.5733		0.6032		C.3		1		UNL1		-0.5037
18		C		2.7095		-1.6476		0.4649		C.ar		1		UNL1		0.5812
19		O		3.6565		-2.2976		0.8847		O.2		1		UNL1		-0.5105
20		N		2.8878		-0.2878		0.1264		N.ar		1		UNL1		-0.6504
21		H		1.4345		3.2301		1.6936		H		1		UNL1		0.1632
22		H		-0.1151		4.1376		2.1442		H		1		UNL1		0.1457
23		H		-0.9039		4.0214		-0.1438		H		1		UNL1		0.1454
24		H		0.1235		2.1664		-1.4987		H		1		UNL1		0.2323
25		H		0.9420		3.6964		-1.8402		H		1		UNL1		0.1920
26		H		-1.0998		0.5886		1.1305		H		1		UNL1		0.1540
27		H		-3.1099		1.8702		1.7576		H		1		UNL1		0.1350
28		H		-5.3298		1.2510		0.8260		H		1		UNL1		0.1370
29		H		-5.5282		-0.6876		-0.7198		H		1		UNL1		0.1384
30		H		-3.4957		-2.0050		-1.3151		H		1		UNL1		0.1636
31		H		1.4710		-4.2192		-0.2066		H		1		UNL1		0.1809
32		H		1.6848		-3.8331		1.4966		H		1		UNL1		0.1736
33		H		0.0545		-3.8002		0.7550		H		1		UNL1		0.1696
34		H		3.8274		0.0707		0.2675		H		1		UNL1		0.3564
@<TRIPOS>BOND
1		25		3		1
2		24		3		1
3		30		15		1
4		9		8		2
5		3		4		1
6		3		2		1
7		4		5		1
8		29		14		1
9		15		14		ar
10		15		10		ar
11		8		7		1
12		8		10		1
13		6		5		ar
14		6		7		ar
15		5		20		ar
16		14		13		ar
17		7		16		ar
18		31		17		1
19		23		2		1
20		10		11		ar
21		2		1		2
22		20		34		1
23		20		18		ar
24		16		18		ar
25		16		17		1
26		18		19		2
27		13		28		1
28		13		12		ar
29		17		33		1
30		17		32		1
31		11		12		ar
32		11		26		1
33		12		27		1
34		1		21		1
35		1		22		1

