@<TRIPOS>MOLECULE
LJ-2006-CPB-1249-23
 56 59 0 0 0
SMALL
MULLIKEN_CHARGES
****
Gaussian 16 #p B3LYP/6-31G* opt
@<TRIPOS>ATOM
1		C		3.0481		2.5705		-1.7020		C.3		1		UNL1		-0.4582
2		C		1.6496		1.9503		-1.8915		C.3		1		UNL1		-0.1494
3		C		0.8611		2.6589		-3.0112		C.3		1		UNL1		-0.4537
4		C		0.8572		1.9140		-0.5915		C.ar		1		UNL1		0.0482
5		C		0.3943		0.7581		-0.0380		C.ar		1		UNL1		0.2024
6		C		0.5411		-0.5696		-0.7724		C.2		1		UNL1		0.2952
7		O		-0.4166		-0.8893		-1.4644		O.2		1		UNL1		-0.4425
8		C		1.7785		-1.4136		-0.7224		C.ar		1		UNL1		0.0118
9		C		1.8212		-2.4020		-1.7009		C.ar		1		UNL1		-0.1596
10		C		2.9143		-3.2739		-1.8359		C.ar		1		UNL1		-0.1347
11		C		3.9814		-3.1619		-0.9743		C.ar		1		UNL1		-0.1749
12		C		3.9897		-2.1877		0.0563		C.ar		1		UNL1		0.1302
13		C		5.0937		-2.1069		0.9475		C.ar		1		UNL1		-0.1915
14		C		5.1178		-1.1861		1.9672		C.ar		1		UNL1		-0.1292
15		C		4.0232		-0.3096		2.1339		C.ar		1		UNL1		-0.1393
16		C		2.9380		-0.3584		1.2847		C.ar		1		UNL1		-0.1936
17		C		2.8759		-1.2865		0.2074		C.ar		1		UNL1		0.0896
18		N		-0.3514		0.7099		1.1373		N.ar		1		UNL1		-0.5292
19		C		-0.8396		-0.5501		1.7254		C.3		1		UNL1		-0.1899
20		C		-2.2636		-0.9115		1.3920		C.2		1		UNL1		-0.1179
21		C		-3.0144		-0.3639		0.4286		C.2		1		UNL1		-0.1385
22		C		-4.4067		-0.7062		0.0996		C.ar		1		UNL1		0.1654
23		C		-5.2390		-1.4536		0.9529		C.ar		1		UNL1		-0.1804
24		C		-6.5459		-1.7618		0.5861		C.ar		1		UNL1		-0.1309
25		C		-7.0580		-1.3254		-0.6393		C.ar		1		UNL1		-0.1287
26		C		-6.2498		-0.5726		-1.4919		C.ar		1		UNL1		-0.1298
27		C		-4.9414		-0.2643		-1.1230		C.ar		1		UNL1		-0.1915
28		C		-0.6604		1.8708		1.8570		C.ar		1		UNL1		0.7821
29		O		-1.2736		1.8588		2.9103		O.2		1		UNL1		-0.5084
30		N		-0.1901		3.0297		1.2704		N.ar		1		UNL1		-0.7027
31		C		0.5431		3.1775		0.0830		C.ar		1		UNL1		0.5998
32		O		0.8612		4.2997		-0.2902		O.2		1		UNL1		-0.5099
33		H		2.9711		3.6175		-1.3997		H		1		UNL1		0.1831
34		H		3.6086		2.5211		-2.6429		H		1		UNL1		0.1389
35		H		3.6197		2.0286		-0.9398		H		1		UNL1		0.1413
36		H		1.8001		0.9130		-2.2129		H		1		UNL1		0.1339
37		H		0.6762		3.7048		-2.7527		H		1		UNL1		0.1800
38		H		1.4305		2.6295		-3.9476		H		1		UNL1		0.1395
39		H		-0.1017		2.1650		-3.1838		H		1		UNL1		0.1465
40		H		0.9765		-2.4781		-2.3768		H		1		UNL1		0.1765
41		H		2.9121		-4.0248		-2.6204		H		1		UNL1		0.1466
42		H		4.8382		-3.8249		-1.0675		H		1		UNL1		0.1452
43		H		5.9216		-2.7972		0.8062		H		1		UNL1		0.1396
44		H		5.9659		-1.1332		2.6436		H		1		UNL1		0.1416
45		H		4.0322		0.4146		2.9437		H		1		UNL1		0.1443
46		H		2.1244		0.3306		1.4571		H		1		UNL1		0.1559
47		H		-0.7393		-0.4441		2.8091		H		1		UNL1		0.1982
48		H		-0.1557		-1.3516		1.4206		H		1		UNL1		0.1721
49		H		-2.6632		-1.7067		2.0199		H		1		UNL1		0.1343
50		H		-2.5667		0.3967		-0.2074		H		1		UNL1		0.1379
51		H		-4.8669		-1.7800		1.9199		H		1		UNL1		0.1273
52		H		-7.1722		-2.3372		1.2630		H		1		UNL1		0.1292
53		H		-8.0801		-1.5639		-0.9211		H		1		UNL1		0.1289
54		H		-6.6379		-0.2227		-2.4449		H		1		UNL1		0.1304
55		H		-4.3145		0.3194		-1.7929		H		1		UNL1		0.1344
56		H		-0.4133		3.8869		1.7640		H		1		UNL1		0.3540
@<TRIPOS>BOND
1		38		3		1
2		39		3		1
3		3		37		1
4		3		2		1
5		34		1		1
6		41		10		1
7		54		26		1
8		40		9		1
9		36		2		1
10		2		1		1
11		2		4		1
12		10		9		ar
13		10		11		ar
14		55		27		1
15		1		33		1
16		1		35		1
17		9		8		ar
18		26		27		ar
19		26		25		ar
20		7		6		2
21		27		22		ar
22		42		11		1
23		11		12		ar
24		53		25		1
25		6		8		1
26		6		5		1
27		8		17		ar
28		25		24		ar
29		4		5		ar
30		4		31		ar
31		32		31		2
32		50		21		1
33		5		18		ar
34		12		17		ar
35		12		13		ar
36		31		30		ar
37		22		21		1
38		22		23		ar
39		17		16		ar
40		21		20		2
41		24		23		ar
42		24		52		1
43		43		13		1
44		13		14		ar
45		23		51		1
46		18		19		1
47		18		28		ar
48		30		56		1
49		30		28		ar
50		16		46		1
51		16		15		ar
52		20		19		1
53		20		49		1
54		48		19		1
55		19		47		1
56		28		29		2
57		14		15		ar
58		14		44		1
59		15		45		1

