@<TRIPOS>MOLECULE
LY-2014-EJPS-334-2-1v
 60 63 0 0 0
SMALL
MULLIKEN_CHARGES
****
Gaussian 16 #p B3LYP/6-31G* opt
@<TRIPOS>ATOM
1		C		1.4839		1.9697		-3.3871		C.3		1		UNL1		-0.5136
2		C		1.1248		1.5871		-1.9762		C.ar		1		UNL1		0.3423
3		C		-0.1216		1.8740		-1.4235		C.ar		1		UNL1		-0.2329
4		C		-0.3455		1.4712		-0.1015		C.ar		1		UNL1		0.3412
5		C		-1.6867		1.6821		0.6026		C.3		1		UNL1		-0.0793
6		N		-2.3620		2.8816		0.0962		N.3		1		UNL1		-0.5838
7		C		-1.7821		4.1287		0.5407		C.3		1		UNL1		0.0408
8		C		-2.6749		5.2929		0.8514		C.3		1		UNL1		-0.3339
9		C		-1.9047		4.6214		1.9708		C.3		1		UNL1		-0.3189
10		C		-2.5662		0.4505		0.4077		C.ar		1		UNL1		0.1177
11		C		-3.3714		0.2958		-0.7287		C.ar		1		UNL1		-0.1801
12		C		-4.1563		-0.8427		-0.8926		C.ar		1		UNL1		-0.1893
13		C		-4.1687		-1.8786		0.0572		C.ar		1		UNL1		0.1838
14		C		-5.0504		-3.1203		-0.1674		C.3		1		UNL1		0.0164
15		C		-4.9277		-4.1414		0.9794		C.3		1		UNL1		-0.4573
16		C		-4.6286		-3.8195		-1.4818		C.3		1		UNL1		-0.4389
17		C		-6.5325		-2.6880		-0.2706		C.3		1		UNL1		-0.4388
18		C		-3.3540		-1.7139		1.1855		C.ar		1		UNL1		-0.1989
19		C		-2.5692		-0.5720		1.3586		C.ar		1		UNL1		-0.1738
20		N		0.5923		0.8441		0.6090		N.ar		1		UNL1		-0.5567
21		C		1.7616		0.6095		-0.0206		C.ar		1		UNL1		0.6905
22		N		2.6801		-0.0479		0.7775		N.pl3		1		UNL1		-0.7705
23		C		3.9845		-0.4807		0.5535		C.ar		1		UNL1		0.3843
24		C		4.6300		-1.1332		1.6250		C.ar		1		UNL1		-0.2059
25		C		5.9276		-1.5994		1.4994		C.ar		1		UNL1		-0.1410
26		C		6.6270		-1.4276		0.2913		C.ar		1		UNL1		0.1298
27		C		7.9680		-1.9063		0.1539		C.1		1		UNL1		0.2255
28		N		9.0595		-2.2963		0.0434		N.1		1		UNL1		-0.4876
29		C		5.9850		-0.7781		-0.7763		C.ar		1		UNL1		-0.1540
30		C		4.6834		-0.3082		-0.6568		C.ar		1		UNL1		-0.1607
31		N		2.0785		0.9485		-1.2732		N.ar		1		UNL1		-0.5338
32		H		2.3687		2.6164		-3.3904		H		1		UNL1		0.1768
33		H		1.7385		1.0756		-3.9675		H		1		UNL1		0.1783
34		H		0.6629		2.4914		-3.8860		H		1		UNL1		0.1590
35		H		-0.8936		2.3925		-1.9783		H		1		UNL1		0.1580
36		H		-1.4485		1.7617		1.6754		H		1		UNL1		0.1395
37		H		-3.3452		2.8388		0.3541		H		1		UNL1		0.3038
38		H		-0.8465		4.3570		0.0340		H		1		UNL1		0.1508
39		H		-3.7504		5.1314		0.8132		H		1		UNL1		0.1516
40		H		-2.3708		6.2827		0.5226		H		1		UNL1		0.1586
41		H		-1.0671		5.1503		2.4181		H		1		UNL1		0.1543
42		H		-2.4716		4.0103		2.6693		H		1		UNL1		0.1510
43		H		-3.3854		1.0752		-1.4850		H		1		UNL1		0.1423
44		H		-4.7701		-0.9225		-1.7859		H		1		UNL1		0.1261
45		H		-5.5702		-5.0051		0.7745		H		1		UNL1		0.1426
46		H		-3.9020		-4.5120		1.0879		H		1		UNL1		0.1466
47		H		-5.2422		-3.7170		1.9397		H		1		UNL1		0.1451
48		H		-3.5831		-4.1445		-1.4348		H		1		UNL1		0.1489
49		H		-5.2523		-4.7040		-1.6603		H		1		UNL1		0.1396
50		H		-4.7338		-3.1579		-2.3479		H		1		UNL1		0.1429
51		H		-6.8627		-2.1963		0.6516		H		1		UNL1		0.1465
52		H		-6.6974		-1.9905		-1.0985		H		1		UNL1		0.1426
53		H		-7.1740		-3.5618		-0.4384		H		1		UNL1		0.1398
54		H		-3.3241		-2.4786		1.9539		H		1		UNL1		0.1278
55		H		-1.9474		-0.4791		2.2454		H		1		UNL1		0.1308
56		H		2.2984		-0.2394		1.6950		H		1		UNL1		0.3437
57		H		4.0997		-1.2721		2.5644		H		1		UNL1		0.1345
58		H		6.4088		-2.0991		2.3340		H		1		UNL1		0.1555
59		H		6.5171		-0.6413		-1.7126		H		1		UNL1		0.1553
60		H		4.1950		0.1902		-1.4814		H		1		UNL1		0.1852
@<TRIPOS>BOND
1		33		1		1
2		34		1		1
3		32		1		1
4		1		2		1
5		50		16		1
6		35		3		1
7		2		3		ar
8		2		31		ar
9		44		12		1
10		59		29		1
11		49		16		1
12		43		11		1
13		16		48		1
14		16		14		1
15		60		30		1
16		3		4		ar
17		31		21		ar
18		52		17		1
19		12		11		ar
20		12		13		ar
21		29		30		ar
22		29		26		ar
23		11		10		ar
24		30		23		ar
25		53		17		1
26		17		14		1
27		17		51		1
28		14		13		1
29		14		15		1
30		4		5		1
31		4		20		ar
32		21		20		ar
33		21		22		1
34		38		7		1
35		28		27		3
36		13		18		ar
37		6		37		1
38		6		7		1
39		6		5		1
40		27		26		1
41		26		25		ar
42		10		5		1
43		10		19		ar
44		40		8		1
45		7		8		1
46		7		9		1
47		23		22		1
48		23		24		ar
49		5		36		1
50		45		15		1
51		22		56		1
52		39		8		1
53		8		9		1
54		15		46		1
55		15		47		1
56		18		19		ar
57		18		54		1
58		19		55		1
59		25		24		ar
60		25		58		1
61		24		57		1
62		9		41		1
63		9		42		1

