@<TRIPOS>MOLECULE
LY-2014-EJPS-334-2-1w
 52 55 0 0 0
SMALL
MULLIKEN_CHARGES
****
Gaussian 16 #p B3LYP/6-31G* opt
@<TRIPOS>ATOM
1		C		-6.1048		-4.0842		0.5347		C.3		1		UNL1		-0.2140
2		O		-5.1409		-3.7101		-0.4357		O.3		1		UNL1		-0.5087
3		C		-4.5051		-2.5106		-0.2832		C.ar		1		UNL1		0.3801
4		C		-4.7310		-1.6122		0.7642		C.ar		1		UNL1		-0.1987
5		C		-4.0167		-0.4113		0.8154		C.ar		1		UNL1		-0.1880
6		C		-3.0696		-0.0820		-0.1559		C.ar		1		UNL1		0.1332
7		C		-2.3386		1.2657		-0.1095		C.3		1		UNL1		-0.0923
8		N		-2.3698		1.8318		1.2423		N.3		1		UNL1		-0.5677
9		C		-1.9852		3.2201		1.3227		C.3		1		UNL1		0.0293
10		C		-3.0680		4.2497		1.1125		C.3		1		UNL1		-0.3075
11		C		-2.5089		4.0071		2.4944		C.3		1		UNL1		-0.3212
12		C		-0.9111		1.1519		-0.6508		C.ar		1		UNL1		0.3354
13		C		-0.5439		1.6446		-1.9075		C.ar		1		UNL1		-0.2529
14		C		0.7898		1.5010		-2.2946		C.ar		1		UNL1		0.3455
15		C		1.2986		1.9945		-3.6223		C.3		1		UNL1		-0.5149
16		N		1.6918		0.9127		-1.4919		N.ar		1		UNL1		-0.5318
17		C		1.2418		0.4796		-0.3082		C.ar		1		UNL1		0.6891
18		N		2.1027		-0.1371		0.5783		N.pl3		1		UNL1		-0.7694
19		C		3.4625		-0.4393		0.5194		C.ar		1		UNL1		0.3834
20		C		4.0124		-1.1019		1.6366		C.ar		1		UNL1		-0.2057
21		C		5.3540		-1.4426		1.6748		C.ar		1		UNL1		-0.1406
22		C		6.1938		-1.1299		0.5909		C.ar		1		UNL1		0.1307
23		C		7.5812		-1.4780		0.6230		C.1		1		UNL1		0.2265
24		N		8.7101		-1.7612		0.6501		N.1		1		UNL1		-0.4859
25		C		5.6466		-0.4705		-0.5221		C.ar		1		UNL1		-0.1536
26		C		4.3016		-0.1261		-0.5665		C.ar		1		UNL1		-0.1601
27		N		-0.0190		0.5737		0.1567		N.ar		1		UNL1		-0.5546
28		C		-2.8576		-0.9955		-1.2016		C.ar		1		UNL1		-0.1798
29		C		-3.5611		-2.1906		-1.2695		C.ar		1		UNL1		-0.1799
30		H		-6.9392		-3.3711		0.5725		H		1		UNL1		0.1515
31		H		-5.6600		-4.1691		1.5352		H		1		UNL1		0.1513
32		H		-6.4801		-5.0610		0.2236		H		1		UNL1		0.1693
33		H		-5.4549		-1.8302		1.5415		H		1		UNL1		0.1297
34		H		-4.1972		0.2867		1.6256		H		1		UNL1		0.1472
35		H		-2.8758		1.9759		-0.7530		H		1		UNL1		0.1563
36		H		-1.7600		1.2675		1.8341		H		1		UNL1		0.3142
37		H		-0.9869		3.4912		0.9657		H		1		UNL1		0.1308
38		H		-2.8108		5.1730		0.6009		H		1		UNL1		0.1488
39		H		-4.0671		3.8759		0.9083		H		1		UNL1		0.1603
40		H		-1.8647		4.7617		2.9368		H		1		UNL1		0.1504
41		H		-3.1390		3.4727		3.1992		H		1		UNL1		0.1594
42		H		-1.2695		2.1252		-2.5551		H		1		UNL1		0.1412
43		H		0.5051		2.4593		-4.2134		H		1		UNL1		0.1597
44		H		2.1012		2.7252		-3.4712		H		1		UNL1		0.1802
45		H		1.7254		1.1635		-4.1951		H		1		UNL1		0.1811
46		H		1.6206		-0.4233		1.4210		H		1		UNL1		0.3450
47		H		3.3730		-1.3495		2.4807		H		1		UNL1		0.1366
48		H		5.7608		-1.9523		2.5421		H		1		UNL1		0.1572
49		H		6.2875		-0.2257		-1.3633		H		1		UNL1		0.1564
50		H		3.8871		0.3800		-1.4261		H		1		UNL1		0.1848
51		H		-2.1291		-0.7755		-1.9774		H		1		UNL1		0.1259
52		H		-3.3937		-2.8967		-2.0770		H		1		UNL1		0.1367
@<TRIPOS>BOND
1		43		15		1
2		45		15		1
3		15		44		1
4		15		14		1
5		42		13		1
6		14		13		ar
7		14		16		ar
8		52		29		1
9		51		28		1
10		13		12		ar
11		16		17		ar
12		50		26		1
13		49		25		1
14		29		28		ar
15		29		3		ar
16		28		6		ar
17		35		7		1
18		12		7		1
19		12		27		ar
20		26		25		ar
21		26		19		ar
22		25		22		ar
23		2		3		1
24		2		1		1
25		17		27		ar
26		17		18		1
27		3		4		ar
28		6		7		1
29		6		5		ar
30		7		8		1
31		32		1		1
32		19		18		1
33		19		20		ar
34		1		30		1
35		1		31		1
36		18		46		1
37		22		23		1
38		22		21		ar
39		38		10		1
40		23		24		3
41		4		5		ar
42		4		33		1
43		5		34		1
44		39		10		1
45		37		9		1
46		10		9		1
47		10		11		1
48		8		9		1
49		8		36		1
50		9		11		1
51		20		21		ar
52		20		47		1
53		21		48		1
54		11		40		1
55		11		41		1

