@<TRIPOS>MOLECULE
LY-2014-EJPS-334-2-1x
 48 51 0 0 0
SMALL
MULLIKEN_CHARGES
****
Gaussian 16 #p B3LYP/6-31G* opt
@<TRIPOS>ATOM
1		C		-2.1794		-1.9300		-2.6292		C.3		1		UNL1		-0.5490
2		C		-1.0603		-1.2626		-1.8729		C.ar		1		UNL1		0.1194
3		C		0.2668		-1.6418		-2.0583		C.ar		1		UNL1		0.0187
4		N		1.3095		-1.0989		-1.4195		N.ar		1		UNL1		-0.4772
5		C		1.0043		-0.1318		-0.5502		C.ar		1		UNL1		0.6950
6		N		1.9964		0.5027		0.1727		N.pl3		1		UNL1		-0.7681
7		C		3.3807		0.3434		0.2090		C.ar		1		UNL1		0.3839
8		C		4.0932		-0.5964		-0.5597		C.ar		1		UNL1		-0.1606
9		C		5.4755		-0.6752		-0.4464		C.ar		1		UNL1		-0.1534
10		C		6.1850		0.1682		0.4245		C.ar		1		UNL1		0.1304
11		C		7.6087		0.0756		0.5312		C.1		1		UNL1		0.2264
12		N		8.7672		0.0012		0.6194		N.1		1		UNL1		-0.4861
13		C		5.4714		1.1068		1.1912		C.ar		1		UNL1		-0.1405
14		C		4.0936		1.1903		1.0831		C.ar		1		UNL1		-0.2064
15		N		-0.2333		0.3272		-0.2800		N.ar		1		UNL1		-0.5741
16		C		-1.2550		-0.2247		-0.9360		C.ar		1		UNL1		0.3062
17		C		-2.6430		0.2986		-0.5853		C.3		1		UNL1		-0.1230
18		N		-2.5605		1.7272		-0.2785		N.3		1		UNL1		-0.5603
19		C		-3.8019		2.3529		0.0892		C.3		1		UNL1		0.0291
20		C		-3.9144		3.8349		-0.1536		C.3		1		UNL1		-0.3212
21		C		-4.6738		2.8690		-1.0314		C.3		1		UNL1		-0.3085
22		C		-3.2734		-0.5780		0.5118		C.ar		1		UNL1		0.1648
23		C		-4.5279		-1.1662		0.3111		C.ar		1		UNL1		-0.1926
24		C		-5.1287		-1.9335		1.3123		C.ar		1		UNL1		-0.1283
25		C		-4.4795		-2.1197		2.5324		C.ar		1		UNL1		-0.1288
26		C		-3.2288		-1.5334		2.7454		C.ar		1		UNL1		-0.1283
27		C		-2.6312		-0.7697		1.7439		C.ar		1		UNL1		-0.1804
28		H		-2.9165		-2.3774		-1.9523		H		1		UNL1		0.1778
29		H		-1.7871		-2.7268		-3.2691		H		1		UNL1		0.1625
30		H		-2.7167		-1.2238		-3.2749		H		1		UNL1		0.1699
31		H		0.5107		-2.4321		-2.7681		H		1		UNL1		0.1464
32		H		1.6167		1.2207		0.7761		H		1		UNL1		0.3418
33		H		3.5548		-1.2478		-1.2327		H		1		UNL1		0.1890
34		H		6.0181		-1.4024		-1.0423		H		1		UNL1		0.1572
35		H		6.0045		1.7662		1.8685		H		1		UNL1		0.1568
36		H		3.5530		1.9205		1.6811		H		1		UNL1		0.1347
37		H		-3.2791		0.2026		-1.4729		H		1		UNL1		0.1447
38		H		-1.8346		1.8839		0.4161		H		1		UNL1		0.3143
39		H		-4.3307		1.9629		0.9635		H		1		UNL1		0.1383
40		H		-4.4684		4.4320		0.5654		H		1		UNL1		0.1488
41		H		-3.0497		4.3274		-0.5882		H		1		UNL1		0.1592
42		H		-5.7524		2.8004		-0.9199		H		1		UNL1		0.1477
43		H		-4.3071		2.7283		-2.0440		H		1		UNL1		0.1555
44		H		-5.0435		-1.0150		-0.6350		H		1		UNL1		0.1295
45		H		-6.1037		-2.3812		1.1380		H		1		UNL1		0.1326
46		H		-4.9433		-2.7161		3.3134		H		1		UNL1		0.1331
47		H		-2.7164		-1.6751		3.6934		H		1		UNL1		0.1333
48		H		-1.6549		-0.3231		1.9132		H		1		UNL1		0.1395
@<TRIPOS>BOND
1		30		1		1
2		29		1		1
3		31		3		1
4		1		28		1
5		1		2		1
6		3		2		ar
7		3		4		ar
8		43		21		1
9		2		16		ar
10		37		17		1
11		4		5		ar
12		33		8		1
13		34		9		1
14		21		42		1
15		21		20		1
16		21		19		1
17		16		17		1
18		16		15		ar
19		44		23		1
20		41		20		1
21		17		18		1
22		17		22		1
23		8		9		ar
24		8		7		ar
25		5		15		ar
26		5		6		1
27		9		10		ar
28		18		19		1
29		18		38		1
30		20		19		1
31		20		40		1
32		19		39		1
33		6		7		1
34		6		32		1
35		7		14		ar
36		23		22		ar
37		23		24		ar
38		10		11		1
39		10		13		ar
40		22		27		ar
41		11		12		3
42		14		13		ar
43		14		36		1
44		45		24		1
45		13		35		1
46		24		25		ar
47		27		48		1
48		27		26		ar
49		25		26		ar
50		25		46		1
51		26		47		1

