@<TRIPOS>MOLECULE
LY-2014-EJPS-334-2-1r
 48 51 0 0 0
SMALL
MULLIKEN_CHARGES
****
Gaussian 16 #p B3LYP/6-31G* opt
@<TRIPOS>ATOM
1		C		-0.4058		-3.1092		2.1220		C.3		1		UNL1		-0.5141
2		C		-0.1527		-2.0102		1.1250		C.ar		1		UNL1		0.3437
3		C		1.1310		-1.6880		0.6860		C.ar		1		UNL1		-0.2394
4		C		1.2501		-0.6475		-0.2445		C.ar		1		UNL1		0.3047
5		C		2.5994		-0.1793		-0.7816		C.3		1		UNL1		-0.0918
6		N		3.5497		-1.2999		-0.8036		N.3		1		UNL1		-0.5848
7		C		4.7140		-1.0679		-1.6289		C.3		1		UNL1		0.0313
8		C		5.9948		-0.5980		-0.9872		C.3		1		UNL1		-0.2951
9		C		5.8710		-2.0203		-1.4762		C.3		1		UNL1		-0.3291
10		C		3.1041		0.9916		0.0639		C.ar		1		UNL1		0.1826
11		C		3.6694		0.7788		1.3276		C.ar		1		UNL1		-0.1712
12		C		4.0841		1.8572		2.1081		C.ar		1		UNL1		-0.1318
13		C		3.9335		3.1646		1.6385		C.ar		1		UNL1		-0.1275
14		C		3.3669		3.3845		0.3829		C.ar		1		UNL1		-0.1302
15		C		2.9543		2.3026		-0.3977		C.ar		1		UNL1		-0.1783
16		N		0.1827		0.0100		-0.6989		N.ar		1		UNL1		-0.5511
17		C		-1.0119		-0.3741		-0.2054		C.ar		1		UNL1		0.6927
18		N		-2.0664		0.3577		-0.7170		N.pl3		1		UNL1		-0.7711
19		C		-3.4423		0.3065		-0.5026		C.ar		1		UNL1		0.3839
20		C		-4.2296		1.2360		-1.2140		C.ar		1		UNL1		-0.2056
21		C		-5.6064		1.2632		-1.0696		C.ar		1		UNL1		-0.1407
22		C		-6.2446		0.3566		-0.2042		C.ar		1		UNL1		0.1304
23		C		-7.6667		0.3781		-0.0500		C.1		1		UNL1		0.2261
24		N		-8.8242		0.3961		0.0745		N.1		1		UNL1		-0.4866
25		C		-5.4611		-0.5690		0.5048		C.ar		1		UNL1		-0.1537
26		C		-4.0795		-0.6014		0.3644		C.ar		1		UNL1		-0.1604
27		N		-1.2362		-1.3509		0.6791		N.ar		1		UNL1		-0.5324
28		H		-1.0788		-3.8606		1.6937		H		1		UNL1		0.1784
29		H		-0.9020		-2.7043		3.0113		H		1		UNL1		0.1806
30		H		0.5218		-3.5995		2.4289		H		1		UNL1		0.1590
31		H		2.0054		-2.2148		1.0476		H		1		UNL1		0.1555
32		H		2.3988		0.2109		-1.7936		H		1		UNL1		0.1349
33		H		3.0633		-2.1223		-1.1596		H		1		UNL1		0.3038
34		H		4.5208		-0.6958		-2.6411		H		1		UNL1		0.1277
35		H		5.9783		-0.4307		0.0838		H		1		UNL1		0.1653
36		H		6.6191		0.0934		-1.5462		H		1		UNL1		0.1510
37		H		5.7691		-2.7979		-0.7245		H		1		UNL1		0.1563
38		H		6.4118		-2.3203		-2.3694		H		1		UNL1		0.1518
39		H		3.7937		-0.2379		1.6880		H		1		UNL1		0.1383
40		H		4.5251		1.6776		3.0853		H		1		UNL1		0.1299
41		H		4.2576		4.0046		2.2471		H		1		UNL1		0.1302
42		H		3.2484		4.3975		0.0071		H		1		UNL1		0.1301
43		H		2.5113		2.4775		-1.3751		H		1		UNL1		0.1287
44		H		-1.7431		1.0631		-1.3669		H		1		UNL1		0.3451
45		H		-3.7476		1.9422		-1.8861		H		1		UNL1		0.1356
46		H		-6.1970		1.9850		-1.6245		H		1		UNL1		0.1565
47		H		-5.9453		-1.2721		1.1753		H		1		UNL1		0.1560
48		H		-3.4828		-1.3153		0.9131		H		1		UNL1		0.1851
@<TRIPOS>BOND
1		34		7		1
2		38		9		1
3		45		20		1
4		32		5		1
5		7		9		1
6		7		8		1
7		7		6		1
8		46		21		1
9		36		8		1
10		9		8		1
11		9		37		1
12		43		15		1
13		44		18		1
14		20		21		ar
15		20		19		ar
16		33		6		1
17		21		22		ar
18		8		35		1
19		6		5		1
20		5		4		1
21		5		10		1
22		18		19		1
23		18		17		1
24		16		4		ar
25		16		17		ar
26		19		26		ar
27		15		10		ar
28		15		14		ar
29		4		3		ar
30		17		27		ar
31		22		23		1
32		22		25		ar
33		23		24		3
34		42		14		1
35		10		11		ar
36		26		25		ar
37		26		48		1
38		14		13		ar
39		25		47		1
40		27		2		ar
41		3		31		1
42		3		2		ar
43		2		1		1
44		11		39		1
45		11		12		ar
46		13		12		ar
47		13		41		1
48		28		1		1
49		12		40		1
50		1		30		1
51		1		29		1

