@<TRIPOS>MOLECULE
LY-2014-EJPS-334-2-1y
 48 51 0 0 0
SMALL
MULLIKEN_CHARGES
****
Gaussian 16 #p B3LYP/6-31G* opt
@<TRIPOS>ATOM
1		C		-1.8251		2.0999		-2.8018		C.3		1		UNL1		-0.5492
2		C		-0.7422		1.3764		-2.0444		C.ar		1		UNL1		0.1196
3		C		0.5768		1.8242		-2.0596		C.ar		1		UNL1		0.0194
4		N		1.5867		1.2363		-1.4087		N.ar		1		UNL1		-0.4766
5		C		1.2567		0.1497		-0.7051		C.ar		1		UNL1		0.6952
6		N		2.2145		-0.5411		0.0117		N.pl3		1		UNL1		-0.7679
7		C		3.5826		-0.3390		0.1901		C.ar		1		UNL1		0.3837
8		C		4.3100		0.7238		-0.3781		C.ar		1		UNL1		-0.1604
9		C		5.6730		0.8355		-0.1343		C.ar		1		UNL1		-0.1533
10		C		6.3480		-0.0955		0.6725		C.ar		1		UNL1		0.1307
11		C		7.7522		0.0322		0.9152		C.1		1		UNL1		0.2268
12		N		8.8948		0.1348		1.1139		N.1		1		UNL1		-0.4854
13		C		5.6196		-1.1568		1.2387		C.ar		1		UNL1		-0.1403
14		C		4.2607		-1.2737		0.9997		C.ar		1		UNL1		-0.2063
15		N		0.0235		-0.3848		-0.6082		N.ar		1		UNL1		-0.5740
16		C		-0.9642		0.2148		-1.2745		C.ar		1		UNL1		0.3079
17		C		-2.3502		-0.4023		-1.1191		C.3		1		UNL1		-0.1349
18		N		-2.2180		-1.8550		-1.0272		N.3		1		UNL1		-0.5515
19		C		-3.4390		-2.6126		-0.9640		C.3		1		UNL1		0.0556
20		C		-3.4287		-3.9727		-0.3287		C.3		1		UNL1		-0.3353
21		C		-4.2352		-2.8590		0.3061		C.3		1		UNL1		-0.3162
22		C		-3.1068		0.2926		0.0271		C.ar		1		UNL1		0.1858
23		C		-4.3862		0.8186		-0.1875		C.ar		1		UNL1		-0.1939
24		C		-5.1082		1.4185		0.8462		C.ar		1		UNL1		-0.1961
25		C		-4.5291		1.4862		2.1063		C.ar		1		UNL1		0.3804
26		F		-5.2153		2.0634		3.1147		F		1		UNL1		-0.2960
27		C		-3.2589		0.9770		2.3592		C.ar		1		UNL1		-0.1966
28		C		-2.5546		0.3835		1.3138		C.ar		1		UNL1		-0.1857
29		H		-2.2699		1.4707		-3.5833		H		1		UNL1		0.1707
30		H		-1.4203		2.9920		-3.2902		H		1		UNL1		0.1640
31		H		-2.6379		2.4215		-2.1403		H		1		UNL1		0.1762
32		H		0.8416		2.7117		-2.6341		H		1		UNL1		0.1474
33		H		1.8221		-1.3497		0.4762		H		1		UNL1		0.3413
34		H		3.7984		1.4431		-1.0010		H		1		UNL1		0.1891
35		H		6.2275		1.6576		-0.5758		H		1		UNL1		0.1578
36		H		6.1261		-1.8849		1.8640		H		1		UNL1		0.1573
37		H		3.7084		-2.0991		1.4430		H		1		UNL1		0.1346
38		H		-2.9149		-0.1972		-2.0371		H		1		UNL1		0.1420
39		H		-1.5582		-2.1028		-0.2959		H		1		UNL1		0.3099
40		H		-4.0225		-2.5167		-1.8798		H		1		UNL1		0.1374
41		H		-2.5161		-4.2855		0.1748		H		1		UNL1		0.1482
42		H		-3.9491		-4.7844		-0.8295		H		1		UNL1		0.1557
43		H		-5.3198		-2.9008		0.2428		H		1		UNL1		0.1475
44		H		-3.8594		-2.4287		1.2297		H		1		UNL1		0.1543
45		H		-4.8343		0.7526		-1.1764		H		1		UNL1		0.1350
46		H		-6.1017		1.8255		0.6881		H		1		UNL1		0.1488
47		H		-2.8401		1.0552		3.3573		H		1		UNL1		0.1497
48		H		-1.5592		-0.0107		1.4985		H		1		UNL1		0.1478
@<TRIPOS>BOND
1		29		1		1
2		30		1		1
3		1		31		1
4		1		2		1
5		32		3		1
6		3		2		ar
7		3		4		ar
8		2		16		ar
9		38		17		1
10		40		19		1
11		4		5		ar
12		16		17		1
13		16		15		ar
14		45		23		1
15		17		18		1
16		17		22		1
17		18		19		1
18		18		39		1
19		34		8		1
20		19		20		1
21		19		21		1
22		42		20		1
23		5		15		ar
24		5		6		1
25		35		9		1
26		8		9		ar
27		8		7		ar
28		20		41		1
29		20		21		1
30		23		22		ar
31		23		24		ar
32		9		10		ar
33		6		7		1
34		6		33		1
35		22		28		ar
36		7		14		ar
37		43		21		1
38		21		44		1
39		10		11		1
40		10		13		ar
41		46		24		1
42		24		25		ar
43		11		12		3
44		14		13		ar
45		14		37		1
46		13		36		1
47		28		48		1
48		28		27		ar
49		25		27		ar
50		25		26		1
51		27		47		1

