@<TRIPOS>MOLECULE
LY-2014-EJPS-334-2-1e
 45 48 0 0 0
SMALL
MULLIKEN_CHARGES
****
Gaussian 16 #p B3LYP/6-31G* opt
@<TRIPOS>ATOM
1		N		9.1953		0.5618		-0.1921		N.1		1		UNL1		-0.4839
2		C		8.0442		0.3895		-0.1729		C.1		1		UNL1		0.2279
3		C		6.6294		0.1759		-0.1498		C.ar		1		UNL1		0.1317
4		C		5.7788		1.0860		0.4989		C.ar		1		UNL1		-0.1531
5		C		4.4035		0.8907		0.5296		C.ar		1		UNL1		-0.1592
6		C		3.8442		-0.2373		-0.0985		C.ar		1		UNL1		0.3826
7		N		2.4791		-0.5292		-0.1261		N.pl3		1		UNL1		-0.7662
8		C		1.3789		0.1232		0.3866		C.ar		1		UNL1		0.7043
9		N		1.5221		1.2666		1.0645		N.ar		1		UNL1		-0.4786
10		C		0.3839		1.8150		1.5105		C.ar		1		UNL1		0.0698
11		C		-0.8684		1.2596		1.2947		C.ar		1		UNL1		-0.1941
12		C		-0.9031		0.0549		0.5759		C.ar		1		UNL1		0.3482
13		C		-2.2250		-0.6880		0.3295		C.3		1		UNL1		-0.1130
14		N		-2.0501		-1.7635		-0.6337		N.3		1		UNL1		-0.5713
15		C		-2.6845		-3.0422		-0.4032		C.3		1		UNL1		0.0336
16		C		-2.6641		-3.8095		0.9074		C.3		1		UNL1		-0.3272
17		C		-3.9551		-3.2181		0.3757		C.3		1		UNL1		-0.3223
18		C		-3.3239		0.2826		-0.1037		C.ar		1		UNL1		0.1292
19		C		-4.4645		0.5009		0.6733		C.ar		1		UNL1		-0.2904
20		C		-5.4551		1.3726		0.2300		C.ar		1		UNL1		0.3879
21		F		-6.5476		1.5601		1.0013		F		1		UNL1		-0.2983
22		C		-5.3524		2.0495		-0.9774		C.ar		1		UNL1		-0.1984
23		C		-4.2119		1.8484		-1.7579		C.ar		1		UNL1		-0.1967
24		C		-3.2246		0.9803		-1.3123		C.ar		1		UNL1		0.3557
25		F		-2.1144		0.8261		-2.0629		F		1		UNL1		-0.2889
26		N		0.2135		-0.5118		0.1303		N.ar		1		UNL1		-0.5842
27		C		4.6980		-1.1506		-0.7501		C.ar		1		UNL1		-0.2055
28		C		6.0679		-0.9503		-0.7771		C.ar		1		UNL1		-0.1402
29		H		6.2041		1.9582		0.9853		H		1		UNL1		0.1589
30		H		3.7558		1.5955		1.0302		H		1		UNL1		0.1899
31		H		2.2179		-1.3743		-0.6177		H		1		UNL1		0.3455
32		H		0.4934		2.7451		2.0652		H		1		UNL1		0.1577
33		H		-1.7713		1.7340		1.6593		H		1		UNL1		0.1546
34		H		-2.5176		-1.0660		1.3253		H		1		UNL1		0.1526
35		H		-1.0525		-1.8924		-0.7880		H		1		UNL1		0.3283
36		H		-2.6088		-3.6584		-1.2971		H		1		UNL1		0.1446
37		H		-2.2183		-3.3319		1.7771		H		1		UNL1		0.1487
38		H		-2.5264		-4.8874		0.8788		H		1		UNL1		0.1508
39		H		-4.7137		-3.8840		-0.0269		H		1		UNL1		0.1575
40		H		-4.3692		-2.3634		0.9019		H		1		UNL1		0.1530
41		H		-4.5969		-0.0076		1.6239		H		1		UNL1		0.1494
42		H		-6.1457		2.7184		-1.2929		H		1		UNL1		0.1564
43		H		-4.0778		2.3609		-2.7046		H		1		UNL1		0.1569
44		H		4.2751		-2.0253		-1.2390		H		1		UNL1		0.1373
45		H		6.7117		-1.6626		-1.2829		H		1		UNL1		0.1588
@<TRIPOS>BOND
1		43		23		1
2		25		24		1
3		23		24		ar
4		23		22		ar
5		24		18		ar
6		36		15		1
7		42		22		1
8		45		28		1
9		44		27		1
10		22		20		ar
11		35		14		1
12		28		27		ar
13		28		3		ar
14		27		6		ar
15		14		15		1
16		14		13		1
17		31		7		1
18		15		17		1
19		15		16		1
20		1		2		3
21		2		3		1
22		3		4		ar
23		7		6		1
24		7		8		1
25		18		13		1
26		18		19		ar
27		6		5		ar
28		39		17		1
29		26		8		ar
30		26		12		ar
31		20		19		ar
32		20		21		1
33		13		12		1
34		13		34		1
35		17		40		1
36		17		16		1
37		8		9		ar
38		4		5		ar
39		4		29		1
40		5		30		1
41		12		11		ar
42		19		41		1
43		38		16		1
44		16		37		1
45		9		10		ar
46		11		10		ar
47		11		33		1
48		10		32		1

