@<TRIPOS>MOLECULE
LY-2014-EJPS-334-2-1q
 52 55 0 0 0
SMALL
MULLIKEN_CHARGES
****
Gaussian 16 #p B3LYP/6-31G* opt
@<TRIPOS>ATOM
1		N		-5.2006		-4.0449		1.4116		N.1		1		UNL1		-0.4714
2		C		-5.9637		-3.3005		0.9520		C.1		1		UNL1		0.3584
3		C		-6.9211		-2.3683		0.3490		C.3		1		UNL1		-0.3400
4		C		-6.4442		-1.8029		-1.0163		C.3		1		UNL1		-0.3571
5		C		-5.2032		-0.9434		-0.9154		C.ar		1		UNL1		0.1757
6		C		-5.3001		0.4270		-0.6482		C.ar		1		UNL1		-0.1892
7		C		-4.1602		1.2209		-0.5201		C.ar		1		UNL1		-0.1773
8		C		-2.8837		0.6621		-0.6506		C.ar		1		UNL1		0.1133
9		C		-1.6263		1.5305		-0.5584		C.3		1		UNL1		-0.0979
10		N		-1.9291		2.8270		0.0624		N.3		1		UNL1		-0.5628
11		C		-0.9310		3.8579		-0.0998		C.3		1		UNL1		0.0554
12		C		0.2777		4.0272		0.8009		C.3		1		UNL1		-0.3193
13		C		-0.8839		4.9981		0.8745		C.3		1		UNL1		-0.3372
14		C		-0.4628		0.8062		0.1211		C.ar		1		UNL1		0.3519
15		C		-0.5731		0.2775		1.4187		C.ar		1		UNL1		-0.2066
16		C		0.5704		-0.2922		1.9575		C.ar		1		UNL1		0.0683
17		N		1.7397		-0.3528		1.3046		N.ar		1		UNL1		-0.4779
18		C		1.7353		0.1696		0.0730		C.ar		1		UNL1		0.6912
19		N		2.8799		0.1547		-0.6967		N.pl3		1		UNL1		-0.7649
20		C		4.1668		-0.3297		-0.4629		C.ar		1		UNL1		0.3827
21		C		4.5745		-0.9609		0.7272		C.ar		1		UNL1		-0.1601
22		C		5.8837		-1.4070		0.8581		C.ar		1		UNL1		-0.1532
23		C		6.8171		-1.2412		-0.1783		C.ar		1		UNL1		0.1310
24		C		8.1626		-1.7045		-0.0294		C.1		1		UNL1		0.2272
25		N		9.2580		-2.0804		0.0902		N.1		1		UNL1		-0.4852
26		C		6.4074		-0.6108		-1.3668		C.ar		1		UNL1		-0.1405
27		C		5.1039		-0.1640		-1.5036		C.ar		1		UNL1		-0.2056
28		N		0.6850		0.7469		-0.5540		N.ar		1		UNL1		-0.5624
29		C		-2.7843		-0.7082		-0.9289		C.ar		1		UNL1		-0.1710
30		C		-3.9248		-1.4975		-1.0603		C.ar		1		UNL1		-0.1808
31		H		-7.0963		-1.5461		1.0530		H		1		UNL1		0.1967
32		H		-7.8763		-2.8924		0.2211		H		1		UNL1		0.1937
33		H		-7.2745		-1.2163		-1.4262		H		1		UNL1		0.1605
34		H		-6.2745		-2.6405		-1.7019		H		1		UNL1		0.1683
35		H		-6.2817		0.8864		-0.5464		H		1		UNL1		0.1227
36		H		-4.2505		2.2850		-0.3312		H		1		UNL1		0.1518
37		H		-1.2805		1.7517		-1.5761		H		1		UNL1		0.1737
38		H		-2.1719		2.7060		1.0442		H		1		UNL1		0.2974
39		H		-0.7877		4.1092		-1.1492		H		1		UNL1		0.1501
40		H		1.2131		4.3637		0.3611		H		1		UNL1		0.1534
41		H		0.3991		3.3305		1.6260		H		1		UNL1		0.1514
42		H		-1.5311		4.9444		1.7478		H		1		UNL1		0.1500
43		H		-0.7568		6.0058		0.4889		H		1		UNL1		0.1593
44		H		-1.5104		0.2922		1.9638		H		1		UNL1		0.1494
45		H		0.5632		-0.7274		2.9553		H		1		UNL1		0.1572
46		H		2.7232		0.5849		-1.5995		H		1		UNL1		0.3460
47		H		3.8621		-1.0920		1.5287		H		1		UNL1		0.1897
48		H		6.1913		-1.8931		1.7786		H		1		UNL1		0.1583
49		H		7.1164		-0.4755		-2.1771		H		1		UNL1		0.1575
50		H		4.7985		0.3220		-2.4274		H		1		UNL1		0.1362
51		H		-1.8071		-1.1681		-1.0484		H		1		UNL1		0.1401
52		H		-3.8186		-2.5586		-1.2710		H		1		UNL1		0.1419
@<TRIPOS>BOND
1		50		27		1
2		49		26		1
3		34		4		1
4		46		19		1
5		37		9		1
6		27		26		ar
7		27		20		ar
8		33		4		1
9		26		23		ar
10		52		30		1
11		39		11		1
12		30		29		ar
13		30		5		ar
14		51		29		1
15		4		5		1
16		4		3		1
17		29		8		ar
18		5		6		ar
19		19		20		1
20		19		18		1
21		8		9		1
22		8		7		ar
23		6		35		1
24		6		7		ar
25		9		10		1
26		9		14		1
27		28		18		ar
28		28		14		ar
29		7		36		1
30		20		21		ar
31		23		24		1
32		23		22		ar
33		11		10		1
34		11		12		1
35		11		13		1
36		24		25		3
37		10		38		1
38		18		17		ar
39		14		15		ar
40		32		3		1
41		3		2		1
42		3		31		1
43		40		12		1
44		43		13		1
45		21		22		ar
46		21		47		1
47		12		13		1
48		12		41		1
49		22		48		1
50		13		42		1
51		2		1		3
52		17		16		ar
53		15		16		ar
54		15		44		1
55		16		45		1

