@<TRIPOS>MOLECULE
LY-2014-EJPS-334-2-1m
 49 52 0 0 0
SMALL
MULLIKEN_CHARGES
****
Gaussian 16 #p B3LYP/6-31G* opt
@<TRIPOS>ATOM
1		C		-5.5112		4.2607		-0.0058		C.3		1		UNL1		-0.2157
2		O		-4.4616		3.6432		0.7220		O.3		1		UNL1		-0.5059
3		C		-3.9468		2.4730		0.2450		C.ar		1		UNL1		0.3764
4		C		-4.3714		1.8289		-0.9224		C.ar		1		UNL1		-0.1949
5		C		-3.7603		0.6323		-1.3045		C.ar		1		UNL1		-0.2038
6		C		-2.7374		0.0426		-0.5559		C.ar		1		UNL1		0.1935
7		C		-2.1923		-1.3137		-1.0354		C.3		1		UNL1		-0.1294
8		N		-3.0764		-2.4765		-0.8604		N.3		1		UNL1		-0.5790
9		C		-3.5973		-2.9141		0.4217		C.3		1		UNL1		0.0266
10		C		-4.4707		-2.1102		1.3682		C.3		1		UNL1		-0.3276
11		C		-3.0604		-2.4939		1.7609		C.3		1		UNL1		-0.3201
12		C		-0.7546		-1.6328		-0.6248		C.ar		1		UNL1		0.3118
13		C		-0.3290		-2.9400		-0.3487		C.ar		1		UNL1		-0.1862
14		C		1.0228		-3.1079		-0.0805		C.ar		1		UNL1		0.0652
15		N		1.9090		-2.1038		-0.0809		N.ar		1		UNL1		-0.4780
16		C		1.3998		-0.8996		-0.3690		C.ar		1		UNL1		0.6858
17		N		2.2178		0.2135		-0.4091		N.pl3		1		UNL1		-0.7671
18		C		3.5853		0.3853		-0.2038		C.ar		1		UNL1		0.3834
19		C		4.4776		-0.6538		0.1221		C.ar		1		UNL1		-0.1610
20		C		5.8257		-0.3741		0.3066		C.ar		1		UNL1		-0.1536
21		C		6.3239		0.9327		0.1748		C.ar		1		UNL1		0.1301
22		C		7.7148		1.2063		0.3678		C.1		1		UNL1		0.2261
23		N		8.8465		1.4305		0.5247		N.1		1		UNL1		-0.4870
24		C		5.4310		1.9695		-0.1506		C.ar		1		UNL1		-0.1408
25		C		4.0862		1.6974		-0.3360		C.ar		1		UNL1		-0.2061
26		N		0.1106		-0.6164		-0.6412		N.ar		1		UNL1		-0.5449
27		C		-2.3165		0.7163		0.6015		C.ar		1		UNL1		-0.1727
28		C		-2.9105		1.9070		1.0011		C.ar		1		UNL1		-0.1838
29		H		-6.3942		3.6110		-0.0712		H		1		UNL1		0.1522
30		H		-5.1920		4.5372		-1.0195		H		1		UNL1		0.1526
31		H		-5.7693		5.1643		0.5493		H		1		UNL1		0.1722
32		H		-5.1593		2.2461		-1.5392		H		1		UNL1		0.1326
33		H		-4.1008		0.1481		-2.2187		H		1		UNL1		0.1172
34		H		-2.1221		-1.2197		-2.1295		H		1		UNL1		0.1733
35		H		-3.8480		-2.3993		-1.5169		H		1		UNL1		0.3051
36		H		-3.8649		-3.9691		0.3632		H		1		UNL1		0.1408
37		H		-4.6491		-1.0645		1.1412		H		1		UNL1		0.1723
38		H		-5.3037		-2.6200		1.8462		H		1		UNL1		0.1463
39		H		-2.9080		-3.2676		2.5090		H		1		UNL1		0.1539
40		H		-2.3289		-1.6960		1.8073		H		1		UNL1		0.1587
41		H		-1.0234		-3.7680		-0.3595		H		1		UNL1		0.1674
42		H		1.4270		-4.0932		0.1462		H		1		UNL1		0.1519
43		H		1.6930		1.0479		-0.6395		H		1		UNL1		0.3468
44		H		4.1016		-1.6614		0.2254		H		1		UNL1		0.1887
45		H		6.5076		-1.1805		0.5576		H		1		UNL1		0.1565
46		H		5.7997		2.9848		-0.2561		H		1		UNL1		0.1562
47		H		3.4054		2.5075		-0.5873		H		1		UNL1		0.1362
48		H		-1.4991		0.3207		1.1941		H		1		UNL1		0.1376
49		H		-2.5824		2.4233		1.8979		H		1		UNL1		0.1403
@<TRIPOS>BOND
1		33		5		1
2		34		7		1
3		32		4		1
4		35		8		1
5		5		4		ar
6		5		6		ar
7		7		8		1
8		7		12		1
9		7		6		1
10		30		1		1
11		4		3		ar
12		8		9		1
13		26		12		ar
14		26		16		ar
15		43		17		1
16		12		13		ar
17		47		25		1
18		6		27		ar
19		17		16		1
20		17		18		1
21		16		15		ar
22		41		13		1
23		13		14		ar
24		25		18		ar
25		25		24		ar
26		46		24		1
27		18		19		ar
28		24		21		ar
29		15		14		ar
30		14		42		1
31		29		1		1
32		1		31		1
33		1		2		1
34		19		44		1
35		19		20		ar
36		21		20		ar
37		21		22		1
38		3		2		1
39		3		28		ar
40		20		45		1
41		36		9		1
42		22		23		3
43		9		10		1
44		9		11		1
45		27		28		ar
46		27		48		1
47		28		49		1
48		37		10		1
49		10		11		1
50		10		38		1
51		11		40		1
52		11		39		1

