@<TRIPOS>MOLECULE
LY-2014-EJPS-334-2-1l
 57 60 0 0 0
SMALL
MULLIKEN_CHARGES
****
Gaussian 16 #p B3LYP/6-31G* opt
@<TRIPOS>ATOM
1		C		7.4687		-0.7498		-0.0121		C.3		1		UNL1		-0.4385
2		C		6.2865		-1.6138		-0.5123		C.3		1		UNL1		0.0171
3		C		6.4791		-1.8624		-2.0204		C.3		1		UNL1		-0.4574
4		C		6.3131		-2.9829		0.2080		C.3		1		UNL1		-0.4388
5		C		4.9599		-0.8967		-0.2014		C.ar		1		UNL1		0.1809
6		C		4.0471		-0.5118		-1.1959		C.ar		1		UNL1		-0.1996
7		C		2.8541		0.1390		-0.8811		C.ar		1		UNL1		-0.1715
8		C		2.5246		0.4322		0.4452		C.ar		1		UNL1		0.1774
9		C		1.2065		1.1160		0.7889		C.3		1		UNL1		-0.1033
10		N		0.9614		2.2897		-0.0478		N.3		1		UNL1		-0.5802
11		C		1.6375		3.4843		0.3883		C.3		1		UNL1		0.0294
12		C		2.9930		3.8113		-0.1887		C.3		1		UNL1		-0.3017
13		C		1.7789		4.6038		-0.6094		C.3		1		UNL1		-0.3280
14		C		0.0121		0.1557		0.6991		C.ar		1		UNL1		0.3418
15		C		0.1306		-1.2165		0.9638		C.ar		1		UNL1		-0.1976
16		C		-1.0399		-1.9607		0.9184		C.ar		1		UNL1		0.0681
17		N		-2.2391		-1.4374		0.6330		N.ar		1		UNL1		-0.4783
18		C		-2.2440		-0.1217		0.3913		C.ar		1		UNL1		0.6993
19		N		-3.4215		0.5270		0.0812		N.pl3		1		UNL1		-0.7659
20		C		-4.7364		0.0795		-0.0521		C.ar		1		UNL1		0.3830
21		C		-5.7031		1.0496		-0.3875		C.ar		1		UNL1		-0.2059
22		C		-7.0353		0.7048		-0.5419		C.ar		1		UNL1		-0.1403
23		C		-7.4450		-0.6287		-0.3645		C.ar		1		UNL1		0.1311
24		C		-8.8198		-0.9927		-0.5219		C.1		1		UNL1		0.2273
25		N		-9.9387		-1.2873		-0.6501		N.1		1		UNL1		-0.4849
26		C		-6.4821		-1.5952		-0.0306		C.ar		1		UNL1		-0.1533
27		C		-5.1440		-1.2558		0.1256		C.ar		1		UNL1		-0.1598
28		N		-1.1729		0.6990		0.4183		N.ar		1		UNL1		-0.5805
29		C		3.4277		0.0584		1.4442		C.ar		1		UNL1		-0.2013
30		C		4.6190		-0.5933		1.1263		C.ar		1		UNL1		-0.1886
31		H		8.4222		-1.2500		-0.2213		H		1		UNL1		0.1396
32		H		7.4159		-0.5717		1.0670		H		1		UNL1		0.1426
33		H		7.4798		0.2258		-0.5115		H		1		UNL1		0.1483
34		H		7.4325		-2.3752		-2.1906		H		1		UNL1		0.1424
35		H		6.5026		-0.9259		-2.5891		H		1		UNL1		0.1467
36		H		5.6858		-2.4949		-2.4348		H		1		UNL1		0.1457
37		H		5.4906		-3.6218		-0.1337		H		1		UNL1		0.1460
38		H		7.2560		-3.5041		0.0023		H		1		UNL1		0.1401
39		H		6.2231		-2.8745		1.2940		H		1		UNL1		0.1421
40		H		4.2606		-0.7169		-2.2393		H		1		UNL1		0.1288
41		H		2.1737		0.4417		-1.6721		H		1		UNL1		0.1421
42		H		1.2575		1.3968		1.8617		H		1		UNL1		0.1413
43		H		-0.0445		2.4443		-0.0825		H		1		UNL1		0.3225
44		H		1.4800		3.7813		1.4325		H		1		UNL1		0.1210
45		H		3.4055		3.1071		-0.9029		H		1		UNL1		0.1665
46		H		3.7241		4.2859		0.4601		H		1		UNL1		0.1459
47		H		1.6703		5.6253		-0.2555		H		1		UNL1		0.1477
48		H		1.3859		4.4230		-1.6056		H		1		UNL1		0.1574
49		H		1.0867		-1.6733		1.1845		H		1		UNL1		0.1625
50		H		-1.0270		-3.0313		1.1151		H		1		UNL1		0.1558
51		H		-3.2724		1.5153		-0.0771		H		1		UNL1		0.3438
52		H		-5.3984		2.0843		-0.5274		H		1		UNL1		0.1363
53		H		-7.7669		1.4635		-0.8002		H		1		UNL1		0.1579
54		H		-6.7896		-2.6270		0.1079		H		1		UNL1		0.1582
55		H		-4.4092		-2.0049		0.3824		H		1		UNL1		0.1896
56		H		3.2035		0.2854		2.4849		H		1		UNL1		0.1239
57		H		5.2953		-0.8606		1.9338		H		1		UNL1		0.1257
@<TRIPOS>BOND
1		35		3		1
2		36		3		1
3		40		6		1
4		34		3		1
5		3		2		1
6		41		7		1
7		48		13		1
8		6		7		ar
9		6		5		ar
10		45		12		1
11		7		8		ar
12		53		22		1
13		25		24		3
14		13		47		1
15		13		12		1
16		13		11		1
17		22		21		ar
18		22		23		ar
19		52		21		1
20		24		23		1
21		2		5		1
22		2		1		1
23		2		4		1
24		33		1		1
25		21		20		ar
26		23		26		ar
27		31		1		1
28		5		30		ar
29		12		11		1
30		12		46		1
31		37		4		1
32		43		10		1
33		51		19		1
34		20		19		1
35		20		27		ar
36		10		11		1
37		10		9		1
38		26		54		1
39		26		27		ar
40		1		32		1
41		38		4		1
42		19		18		1
43		27		55		1
44		4		39		1
45		11		44		1
46		18		28		ar
47		18		17		ar
48		28		14		ar
49		8		9		1
50		8		29		ar
51		17		16		ar
52		14		9		1
53		14		15		ar
54		9		42		1
55		16		15		ar
56		16		50		1
57		15		49		1
58		30		29		ar
59		30		57		1
60		29		56		1

