@<TRIPOS>MOLECULE
LY-2014-EJPS-334-2-1ab
 60 63 0 0 0
SMALL
MULLIKEN_CHARGES
****
Gaussian 16 #p B3LYP/6-31G* opt
@<TRIPOS>ATOM
1		C		1.0928		1.5616		2.7010		C.3		1		UNL1		-0.5420
2		C		-0.0372		1.2431		1.7541		C.ar		1		UNL1		0.1132
3		C		-1.2971		0.9165		2.2574		C.ar		1		UNL1		0.0186
4		N		-2.3565		0.5756		1.5169		N.ar		1		UNL1		-0.4733
5		C		-2.1419		0.5617		0.1982		C.ar		1		UNL1		0.6899
6		N		-3.1527		0.2121		-0.6772		N.pl3		1		UNL1		-0.7667
7		C		-4.4767		-0.1735		-0.4781		C.ar		1		UNL1		0.3839
8		C		-5.2342		-0.4621		-1.6326		C.ar		1		UNL1		-0.2062
9		C		-6.5587		-0.8538		-1.5370		C.ar		1		UNL1		-0.1406
10		C		-7.1725		-0.9704		-0.2769		C.ar		1		UNL1		0.1301
11		C		-8.5407		-1.3744		-0.1703		C.1		1		UNL1		0.2262
12		N		-9.6543		-1.7033		-0.0853		N.1		1		UNL1		-0.4865
13		C		-6.4185		-0.6830		0.8731		C.ar		1		UNL1		-0.1534
14		C		-5.0893		-0.2895		0.7842		C.ar		1		UNL1		-0.1615
15		N		-0.9881		0.8784		-0.4190		N.ar		1		UNL1		-0.5538
16		C		0.0571		1.2164		0.3426		C.ar		1		UNL1		0.2556
17		C		1.3203		1.5541		-0.4566		C.3		1		UNL1		-0.0865
18		N		1.8386		2.8858		-0.0893		N.3		1		UNL1		-0.5893
19		C		2.4888		3.5750		-1.1828		C.3		1		UNL1		0.0266
20		C		3.3336		4.7756		-0.8476		C.3		1		UNL1		-0.3277
21		C		3.9880		3.5039		-1.3302		C.3		1		UNL1		-0.2983
22		C		2.3583		0.4364		-0.3260		C.ar		1		UNL1		0.1621
23		C		2.1743		-0.7488		-1.0510		C.ar		1		UNL1		-0.1815
24		C		3.0765		-1.8023		-0.9438		C.ar		1		UNL1		-0.1885
25		C		4.2079		-1.7241		-0.1123		C.ar		1		UNL1		0.1834
26		C		5.1855		-2.9098		-0.0265		C.3		1		UNL1		0.0168
27		C		4.4320		-4.1631		0.4793		C.3		1		UNL1		-0.4387
28		C		5.7713		-3.1972		-1.4296		C.3		1		UNL1		-0.4386
29		C		6.3573		-2.6347		0.9347		C.3		1		UNL1		-0.4568
30		C		4.3832		-0.5340		0.6050		C.ar		1		UNL1		-0.2024
31		C		3.4762		0.5253		0.5040		C.ar		1		UNL1		-0.1879
32		H		1.6650		2.4341		2.3776		H		1		UNL1		0.1831
33		H		0.7012		1.7503		3.7064		H		1		UNL1		0.1522
34		H		1.7981		0.7249		2.7690		H		1		UNL1		0.1799
35		H		-1.4632		0.9292		3.3346		H		1		UNL1		0.1467
36		H		-2.8402		0.2538		-1.6388		H		1		UNL1		0.3439
37		H		-4.7707		-0.3757		-2.6127		H		1		UNL1		0.1349
38		H		-7.1272		-1.0722		-2.4353		H		1		UNL1		0.1565
39		H		-6.8841		-0.7703		1.8499		H		1		UNL1		0.1569
40		H		-4.5164		-0.0699		1.6735		H		1		UNL1		0.1886
41		H		0.9788		1.5532		-1.5028		H		1		UNL1		0.1468
42		H		1.0559		3.4595		0.2213		H		1		UNL1		0.3088
43		H		1.9225		3.6259		-2.1192		H		1		UNL1		0.1314
44		H		3.2949		5.6344		-1.5119		H		1		UNL1		0.1528
45		H		3.4402		5.0206		0.2053		H		1		UNL1		0.1577
46		H		4.5351		2.9119		-0.6056		H		1		UNL1		0.1632
47		H		4.3960		3.4780		-2.3368		H		1		UNL1		0.1515
48		H		1.3111		-0.8461		-1.7058		H		1		UNL1		0.1320
49		H		2.8948		-2.7013		-1.5265		H		1		UNL1		0.1256
50		H		4.0131		-3.9922		1.4776		H		1		UNL1		0.1469
51		H		3.6072		-4.4393		-0.1858		H		1		UNL1		0.1433
52		H		5.1138		-5.0203		0.5387		H		1		UNL1		0.1393
53		H		6.3187		-2.3277		-1.8113		H		1		UNL1		0.1472
54		H		4.9895		-3.4443		-2.1554		H		1		UNL1		0.1429
55		H		6.4663		-4.0448		-1.3868		H		1		UNL1		0.1392
56		H		6.9546		-1.7734		0.6145		H		1		UNL1		0.1455
57		H		7.0228		-3.5048		0.9639		H		1		UNL1		0.1421
58		H		6.0111		-2.4499		1.9581		H		1		UNL1		0.1450
59		H		5.2401		-0.4130		1.2590		H		1		UNL1		0.1259
60		H		3.6448		1.4365		1.0677		H		1		UNL1		0.1441
@<TRIPOS>BOND
1		37		8		1
2		38		9		1
3		47		21		1
4		54		28		1
5		43		19		1
6		53		28		1
7		48		23		1
8		36		6		1
9		8		9		ar
10		8		7		ar
11		9		10		ar
12		49		24		1
13		44		20		1
14		41		17		1
15		28		55		1
16		28		26		1
17		21		19		1
18		21		20		1
19		21		46		1
20		19		20		1
21		19		18		1
22		23		24		ar
23		23		22		ar
24		24		25		ar
25		20		45		1
26		6		7		1
27		6		5		1
28		7		14		ar
29		17		22		1
30		17		18		1
31		17		16		1
32		15		5		ar
33		15		16		ar
34		22		31		ar
35		10		11		1
36		10		13		ar
37		51		27		1
38		11		12		3
39		25		26		1
40		25		30		ar
41		18		42		1
42		26		27		1
43		26		29		1
44		5		4		ar
45		16		2		ar
46		27		52		1
47		27		50		1
48		31		30		ar
49		31		60		1
50		30		59		1
51		56		29		1
52		14		13		ar
53		14		40		1
54		13		39		1
55		29		57		1
56		29		58		1
57		4		3		ar
58		2		3		ar
59		2		1		1
60		3		35		1
61		32		1		1
62		1		34		1
63		1		33		1

