@<TRIPOS>MOLECULE
LY-2014-EJPS-334-2-1t
 48 51 0 0 0
SMALL
MULLIKEN_CHARGES
****
Gaussian 16 #p B3LYP/6-31G* opt
@<TRIPOS>ATOM
1		C		-1.0428		-4.4502		-1.4246		C.3		1		UNL1		-0.5124
2		C		-0.4923		-3.1489		-0.9053		C.ar		1		UNL1		0.3381
3		C		-1.2672		-2.2582		-0.1556		C.ar		1		UNL1		-0.2416
4		C		-0.6577		-1.0823		0.2865		C.ar		1		UNL1		0.3673
5		C		-1.4150		-0.0731		1.1558		C.3		1		UNL1		-0.1201
6		N		-1.7858		-0.6209		2.4642		N.3		1		UNL1		-0.5719
7		C		-0.8568		-0.5400		3.5779		C.3		1		UNL1		0.0432
8		C		-0.0610		0.6898		3.9002		C.3		1		UNL1		-0.3244
9		C		0.6563		-0.5916		3.5109		C.3		1		UNL1		-0.3396
10		C		-2.6375		0.4810		0.4103		C.ar		1		UNL1		0.1309
11		C		-2.4939		0.9660		-0.8978		C.ar		1		UNL1		-0.1706
12		C		-3.5765		1.5022		-1.5909		C.ar		1		UNL1		-0.1355
13		C		-4.8238		1.5497		-0.9677		C.ar		1		UNL1		-0.0628
14		CL		-6.2007		2.2176		-1.8375		Cl		1		UNL1		-0.0277
15		C		-4.9927		1.0788		0.3314		C.ar		1		UNL1		-0.1328
16		C		-3.8952		0.5501		1.0145		C.ar		1		UNL1		-0.1752
17		N		0.6183		-0.7968		-0.0120		N.ar		1		UNL1		-0.5669
18		C		1.2745		-1.7113		-0.7447		C.ar		1		UNL1		0.6868
19		N		2.5906		-1.4993		-1.1026		N.pl3		1		UNL1		-0.7693
20		C		3.4832		-0.4538		-0.8675		C.ar		1		UNL1		0.3835
21		C		3.1582		0.7355		-0.1889		C.ar		1		UNL1		-0.1622
22		C		4.1249		1.7177		-0.0126		C.ar		1		UNL1		-0.1533
23		C		5.4305		1.5505		-0.5023		C.ar		1		UNL1		0.1312
24		C		6.4164		2.5701		-0.3136		C.1		1		UNL1		0.2276
25		N		7.2197		3.3988		-0.1609		N.1		1		UNL1		-0.4840
26		C		5.7531		0.3627		-1.1828		C.ar		1		UNL1		-0.1402
27		C		4.7941		-0.6201		-1.3604		C.ar		1		UNL1		-0.2049
28		N		0.7848		-2.8783		-1.2000		N.ar		1		UNL1		-0.5396
29		H		-2.0971		-4.5769		-1.1647		H		1		UNL1		0.1599
30		H		-0.4737		-5.2912		-1.0126		H		1		UNL1		0.1805
31		H		-0.9382		-4.4961		-2.5141		H		1		UNL1		0.1820
32		H		-2.3112		-2.4654		0.0553		H		1		UNL1		0.1445
33		H		-0.7265		0.7601		1.3238		H		1		UNL1		0.1756
34		H		-2.0878		-1.5867		2.3572		H		1		UNL1		0.3044
35		H		-1.3000		-1.0331		4.4406		H		1		UNL1		0.1430
36		H		-0.0333		1.0212		4.9348		H		1		UNL1		0.1569
37		H		-0.0426		1.5087		3.1857		H		1		UNL1		0.1590
38		H		1.1281		-0.6095		2.5333		H		1		UNL1		0.1746
39		H		1.1905		-1.1476		4.2776		H		1		UNL1		0.1494
40		H		-1.5227		0.9300		-1.3853		H		1		UNL1		0.1439
41		H		-3.4570		1.8789		-2.6013		H		1		UNL1		0.1556
42		H		-5.9674		1.1280		0.8057		H		1		UNL1		0.1543
43		H		-4.0039		0.1972		2.0341		H		1		UNL1		0.1564
44		H		2.9526		-2.2790		-1.6374		H		1		UNL1		0.3470
45		H		2.1564		0.8740		0.1897		H		1		UNL1		0.1845
46		H		3.8665		2.6320		0.5124		H		1		UNL1		0.1585
47		H		6.7573		0.2182		-1.5679		H		1		UNL1		0.1587
48		H		5.0563		-1.5350		-1.8868		H		1		UNL1		0.1378
@<TRIPOS>BOND
1		41		12		1
2		31		1		1
3		48		27		1
4		14		13		1
5		44		19		1
6		12		13		ar
7		12		11		ar
8		47		26		1
9		1		29		1
10		1		30		1
11		1		2		1
12		40		11		1
13		27		26		ar
14		27		20		ar
15		28		2		ar
16		28		18		ar
17		26		23		ar
18		19		20		1
19		19		18		1
20		13		15		ar
21		2		3		ar
22		11		10		ar
23		20		21		ar
24		18		17		ar
25		23		24		1
26		23		22		ar
27		24		25		3
28		21		22		ar
29		21		45		1
30		3		32		1
31		3		4		ar
32		22		46		1
33		17		4		ar
34		4		5		1
35		15		42		1
36		15		16		ar
37		10		16		ar
38		10		5		1
39		16		43		1
40		5		33		1
41		5		6		1
42		34		6		1
43		6		7		1
44		38		9		1
45		37		8		1
46		9		7		1
47		9		8		1
48		9		39		1
49		7		8		1
50		7		35		1
51		8		36		1

