@<TRIPOS>MOLECULE
LY-2014-EJPS-334-2-1j
 45 48 0 0 0
SMALL
MULLIKEN_CHARGES
****
Gaussian 16 #p B3LYP/6-31G* opt
@<TRIPOS>ATOM
1		N		9.2605		-1.9586		-0.8036		N.1		1		UNL1		-0.4839
2		C		8.1726		-1.5575		-0.6992		C.1		1		UNL1		0.2278
3		C		6.8353		-1.0644		-0.5729		C.ar		1		UNL1		0.1316
4		C		6.2308		-0.9499		0.6897		C.ar		1		UNL1		-0.1530
5		C		4.9332		-0.4728		0.8268		C.ar		1		UNL1		-0.1591
6		C		4.2033		-0.0950		-0.3154		C.ar		1		UNL1		0.3827
7		N		2.8958		0.3937		-0.2908		N.pl3		1		UNL1		-0.7661
8		C		2.0140		0.6440		0.7393		C.ar		1		UNL1		0.6987
9		N		2.3741		0.4121		2.0080		N.ar		1		UNL1		-0.4779
10		C		1.4447		0.6913		2.9295		C.ar		1		UNL1		0.0747
11		C		0.1877		1.1910		2.6170		C.ar		1		UNL1		-0.1991
12		C		-0.0837		1.3991		1.2585		C.ar		1		UNL1		0.3647
13		C		-1.4357		1.9153		0.7831		C.3		1		UNL1		-0.1437
14		N		-1.2228		2.8513		-0.3193		N.3		1		UNL1		-0.5515
15		C		-2.3862		3.5371		-0.8171		C.3		1		UNL1		0.0540
16		C		-2.3946		4.0427		-2.2304		C.3		1		UNL1		-0.3349
17		C		-3.3658		2.9548		-1.8213		C.3		1		UNL1		-0.3170
18		C		-2.3858		0.7368		0.5118		C.ar		1		UNL1		0.1938
19		C		-3.6234		0.6661		1.1588		C.ar		1		UNL1		-0.1913
20		C		-4.5160		-0.3777		0.9075		C.ar		1		UNL1		-0.1457
21		C		-4.1581		-1.3656		-0.0052		C.ar		1		UNL1		0.0822
22		BR		-5.3683		-2.8031		-0.3621		Br		1		UNL1		-0.1288
23		C		-2.9288		-1.3247		-0.6632		C.ar		1		UNL1		-0.1475
24		C		-2.0511		-0.2750		-0.3994		C.ar		1		UNL1		-0.1858
25		N		0.8232		1.1226		0.3203		N.ar		1		UNL1		-0.5678
26		C		4.8103		-0.2100		-1.5827		C.ar		1		UNL1		-0.2058
27		C		6.1041		-0.6862		-1.7128		C.ar		1		UNL1		-0.1401
28		H		6.7883		-1.2394		1.5749		H		1		UNL1		0.1590
29		H		4.4757		-0.3865		1.8016		H		1		UNL1		0.1898
30		H		2.4956		0.6294		-1.1898		H		1		UNL1		0.3426
31		H		1.7326		0.5067		3.9630		H		1		UNL1		0.1572
32		H		-0.5447		1.4114		3.3852		H		1		UNL1		0.1471
33		H		-1.8741		2.4909		1.6087		H		1		UNL1		0.1442
34		H		-0.6787		2.4106		-1.0555		H		1		UNL1		0.3107
35		H		-2.8125		4.2039		-0.0676		H		1		UNL1		0.1396
36		H		-2.7703		5.0440		-2.4217		H		1		UNL1		0.1568
37		H		-1.5614		3.7604		-2.8708		H		1		UNL1		0.1487
38		H		-4.4195		3.2060		-1.7279		H		1		UNL1		0.1492
39		H		-3.1786		1.9495		-2.1869		H		1		UNL1		0.1554
40		H		-3.9048		1.4405		1.8691		H		1		UNL1		0.1351
41		H		-5.4750		-0.4209		1.4123		H		1		UNL1		0.1556
42		H		-2.6620		-2.1059		-1.3670		H		1		UNL1		0.1558
43		H		-1.0887		-0.2479		-0.9029		H		1		UNL1		0.1478
44		H		4.2548		0.0798		-2.4718		H		1		UNL1		0.1358
45		H		6.5570		-0.7683		-2.6955		H		1		UNL1		0.1586
@<TRIPOS>BOND
1		37		16		1
2		45		27		1
3		44		26		1
4		36		16		1
5		16		17		1
6		16		15		1
7		39		17		1
8		17		38		1
9		17		15		1
10		27		26		ar
11		27		3		ar
12		26		6		ar
13		42		23		1
14		30		7		1
15		34		14		1
16		43		24		1
17		15		14		1
18		15		35		1
19		1		2		3
20		2		3		1
21		23		24		ar
22		23		21		ar
23		3		4		ar
24		24		18		ar
25		22		21		1
26		14		13		1
27		6		7		1
28		6		5		ar
29		7		8		1
30		21		20		ar
31		25		8		ar
32		25		12		ar
33		18		13		1
34		18		19		ar
35		4		5		ar
36		4		28		1
37		8		9		ar
38		13		12		1
39		13		33		1
40		5		29		1
41		20		19		ar
42		20		41		1
43		19		40		1
44		12		11		ar
45		9		10		ar
46		11		10		ar
47		11		32		1
48		10		31		1

