@<TRIPOS>MOLECULE
LY-2014-EJPS-334-2-1h
 45 48 0 0 0
SMALL
MULLIKEN_CHARGES
****
Gaussian 16 #p B3LYP/6-31G* opt
@<TRIPOS>ATOM
1		N		-9.0884		0.2987		0.2665		N.1		1		UNL1		-0.4860
2		C		-7.9335		0.2650		0.1227		C.1		1		UNL1		0.2266
3		C		-6.5145		0.2251		-0.0554		C.ar		1		UNL1		0.1306
4		C		-5.7423		-0.7713		0.5645		C.ar		1		UNL1		-0.1533
5		C		-4.3639		-0.8221		0.3995		C.ar		1		UNL1		-0.1604
6		C		-3.7194		0.1388		-0.4023		C.ar		1		UNL1		0.3837
7		N		-2.3452		0.1779		-0.6348		N.pl3		1		UNL1		-0.7669
8		C		-1.3012		-0.6133		-0.1987		C.ar		1		UNL1		0.6919
9		N		-1.5360		-1.6564		0.6102		N.ar		1		UNL1		-0.4762
10		C		-0.4521		-2.3475		0.9783		C.ar		1		UNL1		0.0693
11		C		0.8371		-2.0302		0.5661		C.ar		1		UNL1		-0.1968
12		C		0.9618		-0.9265		-0.2862		C.ar		1		UNL1		0.2999
13		C		2.2951		-0.4577		-0.8698		C.3		1		UNL1		-0.0951
14		N		3.3145		-1.5040		-0.7605		N.3		1		UNL1		-0.5713
15		C		4.5132		-1.2493		-1.5245		C.3		1		UNL1		0.0279
16		C		5.7186		-0.6768		-0.8218		C.3		1		UNL1		-0.2989
17		C		5.7052		-2.1256		-1.2432		C.3		1		UNL1		-0.3288
18		C		2.7337		0.8844		-0.2740		C.ar		1		UNL1		0.2142
19		C		2.7220		2.0041		-1.1192		C.ar		1		UNL1		-0.1854
20		C		3.0806		3.2760		-0.6793		C.ar		1		UNL1		-0.1250
21		C		3.4670		3.4604		0.6468		C.ar		1		UNL1		-0.1244
22		C		3.4870		2.3713		1.5151		C.ar		1		UNL1		-0.1260
23		C		3.1223		1.1033		1.0582		C.ar		1		UNL1		-0.1319
24		CL		3.1751		-0.1967		2.2466		Cl		1		UNL1		-0.0133
25		N		-0.1034		-0.2220		-0.6740		N.ar		1		UNL1		-0.5443
26		C		-4.4951		1.1392		-1.0241		C.ar		1		UNL1		-0.2057
27		C		-5.8687		1.1843		-0.8557		C.ar		1		UNL1		-0.1405
28		H		-6.2324		-1.5155		1.1843		H		1		UNL1		0.1574
29		H		-3.7769		-1.5912		0.8801		H		1		UNL1		0.1890
30		H		-2.0163		0.9271		-1.2306		H		1		UNL1		0.3454
31		H		-0.6326		-3.1940		1.6388		H		1		UNL1		0.1552
32		H		1.7011		-2.5885		0.9003		H		1		UNL1		0.1695
33		H		2.0667		-0.2338		-1.9270		H		1		UNL1		0.1411
34		H		2.9031		-2.3794		-1.0826		H		1		UNL1		0.3033
35		H		4.3711		-0.9408		-2.5667		H		1		UNL1		0.1232
36		H		6.3450		0.0211		-1.3704		H		1		UNL1		0.1497
37		H		5.6157		-0.4665		0.2373		H		1		UNL1		0.1744
38		H		5.5921		-2.8694		-0.4597		H		1		UNL1		0.1604
39		H		6.3225		-2.4368		-2.0811		H		1		UNL1		0.1516
40		H		2.4210		1.8626		-2.1537		H		1		UNL1		0.1377
41		H		3.0595		4.1142		-1.3698		H		1		UNL1		0.1378
42		H		3.7519		4.4436		1.0104		H		1		UNL1		0.1418
43		H		3.7819		2.4936		2.5519		H		1		UNL1		0.1563
44		H		-4.0069		1.8868		-1.6452		H		1		UNL1		0.1353
45		H		-6.4507		1.9610		-1.3413		H		1		UNL1		0.1568
@<TRIPOS>BOND
1		35		15		1
2		40		19		1
3		39		17		1
4		33		13		1
5		44		26		1
6		15		17		1
7		15		16		1
8		15		14		1
9		36		16		1
10		41		20		1
11		45		27		1
12		17		16		1
13		17		38		1
14		30		7		1
15		19		20		ar
16		19		18		ar
17		34		14		1
18		26		27		ar
19		26		6		ar
20		13		14		1
21		13		12		1
22		13		18		1
23		27		3		ar
24		16		37		1
25		20		21		ar
26		25		12		ar
27		25		8		ar
28		7		6		1
29		7		8		1
30		6		5		ar
31		12		11		ar
32		18		23		ar
33		8		9		ar
34		3		2		1
35		3		4		ar
36		2		1		3
37		5		4		ar
38		5		29		1
39		4		28		1
40		11		32		1
41		11		10		ar
42		9		10		ar
43		21		42		1
44		21		22		ar
45		10		31		1
46		23		22		ar
47		23		24		1
48		22		43		1

