@<TRIPOS>MOLECULE
LYH-2009-CMC-1537-1A
 40 43 0 0 0
SMALL
MULLIKEN_CHARGES
****
Gaussian 16 #p B3LYP/6-31G* opt
@<TRIPOS>ATOM
1		N		-7.8682		-3.1978		-0.1708		N.1		1		UNL1		-0.4825
2		C		-6.8061		-2.7227		-0.1340		C.1		1		UNL1		0.2291
3		C		-5.4990		-2.1418		-0.0882		C.ar		1		UNL1		0.1328
4		C		-5.3336		-0.7478		-0.1258		C.ar		1		UNL1		-0.1536
5		C		-4.0701		-0.1707		-0.0817		C.ar		1		UNL1		-0.1611
6		C		-2.9316		-0.9922		0.0022		C.ar		1		UNL1		0.3805
7		N		-1.6165		-0.5195		0.0538		N.pl3		1		UNL1		-0.7691
8		C		-1.0854		0.7476		0.0329		C.ar		1		UNL1		0.7021
9		N		-1.8905		1.8140		-0.0508		N.ar		1		UNL1		-0.4919
10		C		-1.2722		2.9894		-0.0658		C.ar		1		UNL1		0.1356
11		CL		-2.3044		4.4030		-0.1738		Cl		1		UNL1		0.0188
12		C		0.0987		3.1622		-0.0016		C.ar		1		UNL1		-0.2072
13		C		0.8272		1.9618		0.0831		C.ar		1		UNL1		0.5799
14		O		2.1712		2.0781		0.1355		O.3		1		UNL1		-0.5612
15		C		2.9703		0.9389		0.3029		C.ar		1		UNL1		0.3522
16		C		2.9930		0.2773		1.5520		C.ar		1		UNL1		-0.1400
17		C		3.8552		-0.7776		1.7351		C.ar		1		UNL1		-0.2093
18		C		4.7239		-1.2086		0.6950		C.ar		1		UNL1		0.1469
19		C		5.6243		-2.2943		0.8604		C.ar		1		UNL1		-0.1936
20		C		6.4550		-2.6841		-0.1662		C.ar		1		UNL1		-0.1338
21		C		6.4231		-2.0029		-1.4075		C.ar		1		UNL1		-0.1354
22		C		5.5627		-0.9453		-1.6001		C.ar		1		UNL1		-0.1887
23		C		4.6922		-0.5195		-0.5615		C.ar		1		UNL1		0.1266
24		C		3.7914		0.5664		-0.7298		C.ar		1		UNL1		-0.2347
25		N		0.2624		0.7659		0.1017		N.ar		1		UNL1		-0.5582
26		C		-3.0969		-2.3912		0.0397		C.ar		1		UNL1		-0.2053
27		C		-4.3588		-2.9602		-0.0046		C.ar		1		UNL1		-0.1401
28		H		-6.2085		-0.1088		-0.1906		H		1		UNL1		0.1621
29		H		-3.9548		0.9030		-0.1117		H		1		UNL1		0.1992
30		H		-0.8936		-1.2257		0.1125		H		1		UNL1		0.3527
31		H		0.5830		4.1283		-0.0146		H		1		UNL1		0.1779
32		H		2.3350		0.6130		2.3463		H		1		UNL1		0.1447
33		H		3.8845		-1.2947		2.6908		H		1		UNL1		0.1400
34		H		5.6469		-2.8141		1.8153		H		1		UNL1		0.1341
35		H		7.1394		-3.5164		-0.0274		H		1		UNL1		0.1353
36		H		7.0834		-2.3191		-2.2104		H		1		UNL1		0.1360
37		H		5.5378		-0.4213		-2.5525		H		1		UNL1		0.1355
38		H		3.7545		1.1063		-1.6712		H		1		UNL1		0.1448
39		H		-2.2218		-3.0337		0.1041		H		1		UNL1		0.1391
40		H		-4.4703		-4.0391		0.0250		H		1		UNL1		0.1597
@<TRIPOS>BOND
1		37		22		1
2		36		21		1
3		38		24		1
4		22		21		ar
5		22		23		ar
6		21		20		ar
7		24		23		ar
8		24		15		ar
9		23		18		ar
10		28		4		1
11		11		10		1
12		1		2		3
13		20		35		1
14		20		19		ar
15		2		3		1
16		4		3		ar
17		4		5		ar
18		29		5		1
19		3		27		ar
20		5		6		ar
21		10		9		ar
22		10		12		ar
23		9		8		ar
24		31		12		1
25		27		40		1
26		27		26		ar
27		12		13		ar
28		6		26		ar
29		6		7		1
30		8		7		1
31		8		25		ar
32		26		39		1
33		7		30		1
34		13		25		ar
35		13		14		1
36		14		15		1
37		15		16		ar
38		18		19		ar
39		18		17		ar
40		19		34		1
41		16		17		ar
42		16		32		1
43		17		33		1

