@<TRIPOS>MOLECULE
LYH-2009-CMC-1537-1S
 46 49 0 0 0
SMALL
MULLIKEN_CHARGES
****
Gaussian 16 #p B3LYP/6-31G* opt
@<TRIPOS>ATOM
1		C		-1.8202		0.0626		-2.8557		C.3		1		UNL1		-0.5333
2		C		-2.7281		-0.1813		-1.6767		C.ar		1		UNL1		0.1936
3		C		-4.0950		-0.2671		-1.8111		C.ar		1		UNL1		-0.3016
4		C		-4.9438		-0.5136		-0.7003		C.ar		1		UNL1		0.1768
5		C		-6.3538		-0.5914		-0.8493		C.ar		1		UNL1		-0.1987
6		C		-7.1687		-0.8332		0.2335		C.ar		1		UNL1		-0.1341
7		C		-6.6021		-1.0087		1.5170		C.ar		1		UNL1		-0.1327
8		C		-5.2367		-0.9418		1.6936		C.ar		1		UNL1		-0.1982
9		C		-4.3659		-0.6941		0.5977		C.ar		1		UNL1		0.0529
10		C		-2.9417		-0.6175		0.7519		C.ar		1		UNL1		0.1276
11		C		-2.2971		-0.8339		2.0997		C.3		1		UNL1		-0.5495
12		C		-2.1841		-0.3483		-0.3707		C.ar		1		UNL1		0.1519
13		O		-0.7856		-0.3300		-0.2628		O.3		1		UNL1		-0.5388
14		C		-0.1426		0.8441		-0.0442		C.ar		1		UNL1		0.5497
15		C		-0.7880		2.0767		0.1138		C.ar		1		UNL1		-0.2218
16		C		0.0559		3.1632		0.3321		C.ar		1		UNL1		0.0649
17		N		1.3842		3.0728		0.3951		N.ar		1		UNL1		-0.4946
18		C		1.8803		1.8284		0.2297		C.ar		1		UNL1		0.6937
19		N		3.2556		1.7746		0.3038		N.pl3		1		UNL1		-0.7649
20		C		4.1654		0.7227		0.1938		C.ar		1		UNL1		0.3817
21		C		5.5300		1.0511		0.3308		C.ar		1		UNL1		-0.2053
22		C		6.5104		0.0778		0.2374		C.ar		1		UNL1		-0.1407
23		C		6.1550		-1.2625		0.0027		C.ar		1		UNL1		0.1311
24		C		7.1623		-2.2739		-0.0950		C.1		1		UNL1		0.2270
25		N		7.9833		-3.0956		-0.1742		N.1		1		UNL1		-0.4857
26		C		4.7959		-1.5898		-0.1338		C.ar		1		UNL1		-0.1541
27		C		3.8071		-0.6182		-0.0412		C.ar		1		UNL1		-0.1630
28		N		1.1801		0.7107		0.0125		N.ar		1		UNL1		-0.5380
29		H		-1.2875		1.0176		-2.7679		H		1		UNL1		0.1659
30		H		-1.0572		-0.7194		-2.9385		H		1		UNL1		0.1797
31		H		-2.3955		0.0838		-3.7856		H		1		UNL1		0.1586
32		H		-4.5448		-0.1479		-2.7943		H		1		UNL1		0.1304
33		H		-6.7799		-0.4550		-1.8405		H		1		UNL1		0.1331
34		H		-8.2462		-0.8896		0.1055		H		1		UNL1		0.1338
35		H		-7.2487		-1.1977		2.3696		H		1		UNL1		0.1333
36		H		-4.8204		-1.0762		2.6864		H		1		UNL1		0.1332
37		H		-1.2101		-0.8691		2.0182		H		1		UNL1		0.1832
38		H		-2.5609		-0.0354		2.8048		H		1		UNL1		0.1666
39		H		-2.6286		-1.7793		2.5441		H		1		UNL1		0.1700
40		H		-1.8638		2.1811		0.0735		H		1		UNL1		0.1641
41		H		-0.3609		4.1602		0.4647		H		1		UNL1		0.1567
42		H		3.6509		2.6912		0.4722		H		1		UNL1		0.3481
43		H		5.8166		2.0843		0.5126		H		1		UNL1		0.1369
44		H		7.5561		0.3472		0.3452		H		1		UNL1		0.1573
45		H		4.5126		-2.6218		-0.3152		H		1		UNL1		0.1584
46		H		2.7645		-0.8803		-0.1476		H		1		UNL1		0.1949
@<TRIPOS>BOND
1		31		1		1
2		30		1		1
3		1		29		1
4		1		2		1
5		32		3		1
6		33		5		1
7		3		2		ar
8		3		4		ar
9		2		12		ar
10		5		4		ar
11		5		6		ar
12		4		9		ar
13		12		13		1
14		12		10		ar
15		45		26		1
16		13		14		1
17		25		24		3
18		46		27		1
19		26		27		ar
20		26		23		ar
21		24		23		1
22		14		28		ar
23		14		15		ar
24		27		20		ar
25		23		22		ar
26		28		18		ar
27		40		15		1
28		34		6		1
29		15		16		ar
30		20		19		1
31		20		21		ar
32		18		19		1
33		18		17		ar
34		6		7		ar
35		22		21		ar
36		22		44		1
37		19		42		1
38		21		43		1
39		16		17		ar
40		16		41		1
41		9		10		ar
42		9		8		ar
43		10		11		1
44		7		8		ar
45		7		35		1
46		8		36		1
47		37		11		1
48		11		39		1
49		11		38		1

