@<TRIPOS>MOLECULE
LYH-2009-CMC-1537-1C
 40 43 0 0 0
SMALL
MULLIKEN_CHARGES
****
Gaussian 16 #p B3LYP/6-31G* opt
@<TRIPOS>ATOM
1		N		-8.2470		-3.1383		-0.4491		N.1		1		UNL1		-0.4825
2		C		-7.1846		-2.6823		-0.3136		C.1		1		UNL1		0.2291
3		C		-5.8771		-2.1249		-0.1464		C.ar		1		UNL1		0.1328
4		C		-4.7614		-2.9642		0.0198		C.ar		1		UNL1		-0.1400
5		C		-3.4991		-2.4180		0.1817		C.ar		1		UNL1		-0.2051
6		C		-3.3090		-1.0217		0.1831		C.ar		1		UNL1		0.3809
7		N		-1.9958		-0.5728		0.3555		N.pl3		1		UNL1		-0.7701
8		C		-1.4451		0.6847		0.4015		C.ar		1		UNL1		0.7058
9		N		-2.2222		1.7665		0.2658		N.ar		1		UNL1		-0.4914
10		C		-1.5872		2.9311		0.3214		C.ar		1		UNL1		0.1353
11		CL		-2.5836		4.3633		0.1471		Cl		1		UNL1		0.0200
12		C		-0.2234		3.0799		0.5027		C.ar		1		UNL1		-0.2040
13		C		0.4710		1.8660		0.6330		C.ar		1		UNL1		0.5898
14		O		1.8095		1.9538		0.8244		O.3		1		UNL1		-0.5579
15		C		2.5647		0.7883		0.9275		C.ar		1		UNL1		0.3262
16		C		2.9023		0.3414		2.2227		C.ar		1		UNL1		-0.1511
17		C		3.7227		-0.7483		2.3773		C.ar		1		UNL1		-0.2040
18		C		4.2399		-1.4370		1.2489		C.ar		1		UNL1		0.1544
19		C		5.0895		-2.5660		1.3952		C.ar		1		UNL1		-0.1969
20		C		5.5879		-3.2260		0.2963		C.ar		1		UNL1		-0.1297
21		C		5.2554		-2.7808		-1.0047		C.ar		1		UNL1		-0.1331
22		C		4.4355		-1.6898		-1.1864		C.ar		1		UNL1		-0.1874
23		C		3.9039		-0.9860		-0.0732		C.ar		1		UNL1		0.0862
24		C		3.0512		0.1508		-0.1925		C.ar		1		UNL1		-0.0038
25		BR		2.5593		0.8217		-1.9061		Br		1		UNL1		-0.1005
26		N		-0.1087		0.6801		0.5901		N.ar		1		UNL1		-0.5565
27		C		-4.4229		-0.1793		0.0166		C.ar		1		UNL1		-0.1609
28		C		-5.6870		-0.7335		-0.1453		C.ar		1		UNL1		-0.1535
29		H		-4.8922		-4.0414		0.0208		H		1		UNL1		0.1596
30		H		-2.6430		-3.0766		0.3091		H		1		UNL1		0.1391
31		H		-1.2920		-1.2925		0.4620		H		1		UNL1		0.3528
32		H		0.2771		4.0369		0.5396		H		1		UNL1		0.1797
33		H		2.5040		0.8822		3.0749		H		1		UNL1		0.1525
34		H		3.9875		-1.0963		3.3720		H		1		UNL1		0.1453
35		H		5.3388		-2.8986		2.3998		H		1		UNL1		0.1385
36		H		6.2365		-4.0881		0.4236		H		1		UNL1		0.1394
37		H		5.6513		-3.3050		-1.8700		H		1		UNL1		0.1408
38		H		4.1841		-1.3534		-2.1858		H		1		UNL1		0.1589
39		H		-4.2884		0.8925		0.0150		H		1		UNL1		0.1992
40		H		-6.5428		-0.0785		-0.2734		H		1		UNL1		0.1621
@<TRIPOS>BOND
1		38		22		1
2		25		24		1
3		37		21		1
4		22		21		ar
5		22		23		ar
6		21		20		ar
7		1		2		3
8		2		3		1
9		40		28		1
10		24		23		ar
11		24		15		ar
12		3		28		ar
13		3		4		ar
14		28		27		ar
15		23		18		ar
16		39		27		1
17		27		6		ar
18		4		29		1
19		4		5		ar
20		11		10		1
21		5		6		ar
22		5		30		1
23		6		7		1
24		9		10		ar
25		9		8		ar
26		20		36		1
27		20		19		ar
28		10		12		ar
29		7		8		1
30		7		31		1
31		8		26		ar
32		12		32		1
33		12		13		ar
34		26		13		ar
35		13		14		1
36		14		15		1
37		15		16		ar
38		18		19		ar
39		18		17		ar
40		19		35		1
41		16		17		ar
42		16		33		1
43		17		34		1

