@<TRIPOS>MOLECULE
LYH-2009-CMC-1537-1U
 41 44 0 0 0
SMALL
MULLIKEN_CHARGES
****
Gaussian 16 #p B3LYP/6-31G* opt
@<TRIPOS>ATOM
1		N		8.4690		-2.9509		0.1764		N.1		1		UNL1		-0.4829
2		C		7.4286		-2.4296		0.1462		C.1		1		UNL1		0.2284
3		C		6.1490		-1.7900		0.1088		C.ar		1		UNL1		0.1321
4		C		6.0488		-0.3892		0.1206		C.ar		1		UNL1		-0.1532
5		C		4.8130		0.2450		0.0842		C.ar		1		UNL1		-0.1588
6		C		3.6356		-0.5233		0.0347		C.ar		1		UNL1		0.3812
7		N		2.3456		0.0114		-0.0066		N.pl3		1		UNL1		-0.7672
8		C		1.8781		1.3066		0.0004		C.ar		1		UNL1		0.7009
9		N		2.7280		2.3365		0.0531		N.ar		1		UNL1		-0.4868
10		C		2.1583		3.5532		0.0580		C.ar		1		UNL1		0.0708
11		C		0.7916		3.7636		0.0116		C.ar		1		UNL1		-0.2164
12		C		0.0124		2.5961		-0.0417		C.ar		1		UNL1		0.5709
13		O		-1.3347		2.7602		-0.0693		O.3		1		UNL1		-0.5604
14		C		-2.1789		1.6657		-0.2440		C.ar		1		UNL1		0.3631
15		C		-2.1543		0.9302		-1.4535		C.ar		1		UNL1		-0.1373
16		C		-3.0668		-0.0780		-1.6462		C.ar		1		UNL1		-0.2031
17		C		-4.0367		-0.3900		-0.6531		C.ar		1		UNL1		0.1447
18		C		-4.9856		-1.4243		-0.8324		C.ar		1		UNL1		-0.2152
19		C		-5.9210		-1.7034		0.1516		C.ar		1		UNL1		0.1321
20		C		-6.8762		-2.7548		-0.0413		C.1		1		UNL1		0.2361
21		N		-7.6538		-3.6071		-0.1913		N.1		1		UNL1		-0.4764
22		C		-5.9381		-0.9473		1.3595		C.ar		1		UNL1		-0.1428
23		C		-5.0267		0.0615		1.5516		C.ar		1		UNL1		-0.1937
24		C		-4.0542		0.3706		0.5617		C.ar		1		UNL1		0.1401
25		C		-3.1001		1.4053		0.7401		C.ar		1		UNL1		-0.2408
26		N		0.5275		1.3809		-0.0481		N.ar		1		UNL1		-0.5625
27		C		3.7358		-1.9292		0.0231		C.ar		1		UNL1		-0.2059
28		C		4.9705		-2.5554		0.0595		C.ar		1		UNL1		-0.1402
29		H		6.9538		0.2089		0.1588		H		1		UNL1		0.1595
30		H		4.7432		1.3230		0.0941		H		1		UNL1		0.1906
31		H		1.5892		-0.6602		-0.0392		H		1		UNL1		0.3490
32		H		2.8456		4.3956		0.1005		H		1		UNL1		0.1600
33		H		0.3410		4.7477		0.0153		H		1		UNL1		0.1608
34		H		-1.4188		1.1745		-2.2117		H		1		UNL1		0.1535
35		H		-3.0598		-0.6488		-2.5709		H		1		UNL1		0.1493
36		H		-4.9778		-2.0030		-1.7514		H		1		UNL1		0.1617
37		H		-6.6777		-1.1800		2.1184		H		1		UNL1		0.1613
38		H		-5.0400		0.6384		2.4724		H		1		UNL1		0.1484
39		H		-3.0969		1.9974		1.6500		H		1		UNL1		0.1515
40		H		2.8310		-2.5316		-0.0144		H		1		UNL1		0.1380
41		H		5.0313		-3.6388		0.0502		H		1		UNL1		0.1597
@<TRIPOS>BOND
1		35		16		1
2		34		15		1
3		36		18		1
4		16		15		ar
5		16		17		ar
6		15		14		ar
7		18		17		ar
8		18		19		ar
9		17		24		ar
10		14		13		1
11		14		25		ar
12		21		20		3
13		13		12		1
14		26		12		ar
15		26		8		ar
16		12		11		ar
17		20		19		1
18		31		7		1
19		40		27		1
20		7		8		1
21		7		6		1
22		8		9		ar
23		11		33		1
24		11		10		ar
25		27		6		ar
26		27		28		ar
27		6		5		ar
28		41		28		1
29		9		10		ar
30		10		32		1
31		28		3		ar
32		5		30		1
33		5		4		ar
34		3		4		ar
35		3		2		1
36		4		29		1
37		2		1		3
38		19		22		ar
39		24		25		ar
40		24		23		ar
41		25		39		1
42		22		23		ar
43		22		37		1
44		23		38		1

