@<TRIPOS>MOLECULE
LYH-2009-CMC-1537-1R
 43 46 0 0 0
SMALL
MULLIKEN_CHARGES
****
Gaussian 16 #p B3LYP/6-31G* opt
@<TRIPOS>ATOM
1		C		-2.4367		1.6167		2.5022		C.3		1		UNL1		-0.5391
2		C		-3.0211		0.7786		1.3947		C.ar		1		UNL1		0.1873
3		C		-3.7954		-0.3354		1.6457		C.ar		1		UNL1		-0.2945
4		C		-4.3541		-1.1261		0.6062		C.ar		1		UNL1		0.1643
5		C		-5.1495		-2.2734		0.8692		C.ar		1		UNL1		-0.1958
6		C		-5.6794		-3.0155		-0.1626		C.ar		1		UNL1		-0.1355
7		C		-5.4392		-2.6430		-1.5080		C.ar		1		UNL1		-0.1371
8		C		-4.6737		-1.5355		-1.7968		C.ar		1		UNL1		-0.1902
9		C		-4.1123		-0.7512		-0.7544		C.ar		1		UNL1		0.1255
10		C		-3.3181		0.3972		-1.0091		C.ar		1		UNL1		-0.2302
11		C		-2.7948		1.1180		0.0324		C.ar		1		UNL1		0.2966
12		O		-2.0970		2.3013		-0.2597		O.3		1		UNL1		-0.5660
13		C		-0.7470		2.2813		-0.3413		C.ar		1		UNL1		0.5751
14		C		-0.1078		3.4921		-0.6635		C.ar		1		UNL1		-0.2151
15		C		1.2710		3.4271		-0.7391		C.ar		1		UNL1		0.0685
16		N		1.9804		2.3050		-0.5261		N.ar		1		UNL1		-0.4890
17		C		1.2572		1.2227		-0.2262		C.ar		1		UNL1		0.6975
18		N		1.8727		0.0124		0.0131		N.pl3		1		UNL1		-0.7679
19		C		3.2130		-0.3763		0.0159		C.ar		1		UNL1		0.3821
20		C		4.2917		0.4885		-0.2462		C.ar		1		UNL1		-0.1593
21		C		5.5914		-0.0015		-0.2164		C.ar		1		UNL1		-0.1536
22		C		5.8549		-1.3508		0.0713		C.ar		1		UNL1		0.1312
23		C		7.1987		-1.8417		0.0987		C.1		1		UNL1		0.2272
24		N		8.2915		-2.2424		0.1215		N.1		1		UNL1		-0.4852
25		C		4.7752		-2.2131		0.3326		C.ar		1		UNL1		-0.1406
26		C		3.4774		-1.7308		0.3046		C.ar		1		UNL1		-0.2060
27		N		-0.0896		1.1566		-0.1204		N.ar		1		UNL1		-0.5604
28		H		-2.7889		1.2694		3.4777		H		1		UNL1		0.1585
29		H		-1.3410		1.5676		2.5005		H		1		UNL1		0.1721
30		H		-2.7122		2.6720		2.3932		H		1		UNL1		0.1708
31		H		-3.9920		-0.6222		2.6766		H		1		UNL1		0.1297
32		H		-5.3335		-2.5566		1.9029		H		1		UNL1		0.1319
33		H		-6.2858		-3.8912		0.0521		H		1		UNL1		0.1328
34		H		-5.8633		-3.2363		-2.3135		H		1		UNL1		0.1333
35		H		-4.4880		-1.2469		-2.8286		H		1		UNL1		0.1330
36		H		-3.1246		0.7124		-2.0303		H		1		UNL1		0.1411
37		H		-0.6702		4.4001		-0.8393		H		1		UNL1		0.1575
38		H		1.8533		4.3133		-0.9836		H		1		UNL1		0.1564
39		H		1.1992		-0.7148		0.2185		H		1		UNL1		0.3495
40		H		4.0956		1.5273		-0.4689		H		1		UNL1		0.1902
41		H		6.4191		0.6708		-0.4195		H		1		UNL1		0.1579
42		H		4.9621		-3.2584		0.5562		H		1		UNL1		0.1577
43		H		2.6503		-2.4071		0.5080		H		1		UNL1		0.1377
@<TRIPOS>BOND
1		35		8		1
2		34		7		1
3		36		10		1
4		8		7		ar
5		8		9		ar
6		7		6		ar
7		10		9		ar
8		10		11		ar
9		38		15		1
10		37		14		1
11		9		4		ar
12		15		14		ar
13		15		16		ar
14		14		13		ar
15		16		17		ar
16		40		20		1
17		41		21		1
18		13		12		1
19		13		27		ar
20		12		11		1
21		20		21		ar
22		20		19		ar
23		17		27		ar
24		17		18		1
25		21		22		ar
26		6		33		1
27		6		5		ar
28		18		19		1
29		18		39		1
30		19		26		ar
31		11		2		ar
32		22		23		1
33		22		25		ar
34		23		24		3
35		26		25		ar
36		26		43		1
37		25		42		1
38		4		5		ar
39		4		3		ar
40		5		32		1
41		2		3		ar
42		2		1		1
43		3		31		1
44		30		1		1
45		29		1		1
46		1		28		1

