@<TRIPOS>MOLECULE
LYH-2009-CMC-1537-1H
 46 49 0 0 0
SMALL
MULLIKEN_CHARGES
****
Gaussian 16 #p B3LYP/6-31G* opt
@<TRIPOS>ATOM
1		C		4.7521		-2.2406		1.2560		C.3		1		UNL1		-0.4420
2		C		4.3517		-1.7998		-0.1639		C.3		1		UNL1		-0.3316
3		C		3.4565		-0.5856		-0.1785		C.ar		1		UNL1		0.0899
4		C		3.8773		0.7427		-0.2836		C.ar		1		UNL1		0.0647
5		CL		5.5966		1.0985		-0.4282		Cl		1		UNL1		0.0121
6		N		3.0873		1.8035		-0.2851		N.ar		1		UNL1		-0.4969
7		C		1.7724		1.5504		-0.1686		C.ar		1		UNL1		0.6935
8		N		0.9870		2.6810		-0.1787		N.pl3		1		UNL1		-0.7710
9		C		-0.3939		2.8690		-0.0881		C.ar		1		UNL1		0.3791
10		C		-1.3327		1.8273		0.0274		C.ar		1		UNL1		-0.1645
11		C		-2.6872		2.1256		0.1106		C.ar		1		UNL1		-0.1592
12		C		-3.1435		3.4535		0.0823		C.ar		1		UNL1		0.1318
13		C		-4.5415		3.7455		0.1714		C.1		1		UNL1		0.2280
14		N		-5.6788		3.9834		0.2451		N.1		1		UNL1		-0.4849
15		C		-2.2033		4.4928		-0.0342		C.ar		1		UNL1		-0.1408
16		C		-0.8519		4.2020		-0.1179		C.ar		1		UNL1		-0.2044
17		N		1.2155		0.3403		-0.0486		N.ar		1		UNL1		-0.5499
18		C		2.0550		-0.6874		-0.0513		C.ar		1		UNL1		0.5373
19		O		1.5531		-1.9413		0.0644		O.3		1		UNL1		-0.5669
20		C		0.1767		-2.1268		0.2467		C.ar		1		UNL1		0.3550
21		C		-0.3908		-1.8886		1.5196		C.ar		1		UNL1		-0.1469
22		C		-1.7250		-2.1546		1.7193		C.ar		1		UNL1		-0.2085
23		C		-2.5381		-2.6692		0.6721		C.ar		1		UNL1		0.1431
24		C		-3.9188		-2.9496		0.8526		C.ar		1		UNL1		-0.1943
25		C		-4.6775		-3.4493		-0.1820		C.ar		1		UNL1		-0.1330
26		C		-4.0876		-3.6933		-1.4464		C.ar		1		UNL1		-0.1346
27		C		-2.7516		-3.4335		-1.6543		C.ar		1		UNL1		-0.1883
28		C		-1.9419		-2.9154		-0.6084		C.ar		1		UNL1		0.1262
29		C		-0.5622		-2.6298		-0.7932		C.ar		1		UNL1		-0.2325
30		H		3.8679		-2.4911		1.8514		H		1		UNL1		0.1541
31		H		5.3942		-3.1273		1.2137		H		1		UNL1		0.1513
32		H		5.3017		-1.4480		1.7748		H		1		UNL1		0.1579
33		H		5.2515		-1.5882		-0.7488		H		1		UNL1		0.1661
34		H		3.8300		-2.6230		-0.6625		H		1		UNL1		0.1640
35		H		1.5457		3.5202		-0.2707		H		1		UNL1		0.3523
36		H		-0.9972		0.8012		0.0504		H		1		UNL1		0.2025
37		H		-3.4042		1.3155		0.1987		H		1		UNL1		0.1620
38		H		-2.5398		5.5242		-0.0581		H		1		UNL1		0.1587
39		H		-0.1340		5.0141		-0.2072		H		1		UNL1		0.1392
40		H		0.2338		-1.5006		2.3174		H		1		UNL1		0.1455
41		H		-2.1744		-1.9752		2.6927		H		1		UNL1		0.1432
42		H		-4.3679		-2.7618		1.8249		H		1		UNL1		0.1370
43		H		-5.7330		-3.6580		-0.0322		H		1		UNL1		0.1380
44		H		-4.6966		-4.0873		-2.2553		H		1		UNL1		0.1375
45		H		-2.2983		-3.6196		-2.6248		H		1		UNL1		0.1358
46		H		-0.0903		-2.8103		-1.7545		H		1		UNL1		0.1442
@<TRIPOS>BOND
1		45		27		1
2		44		26		1
3		46		29		1
4		27		26		ar
5		27		28		ar
6		26		25		ar
7		29		28		ar
8		29		20		ar
9		33		2		1
10		34		2		1
11		28		23		ar
12		5		4		1
13		6		4		ar
14		6		7		ar
15		4		3		ar
16		35		8		1
17		39		16		1
18		25		43		1
19		25		24		ar
20		8		7		1
21		8		9		1
22		3		2		1
23		3		18		ar
24		7		17		ar
25		2		1		1
26		16		9		ar
27		16		15		ar
28		9		10		ar
29		38		15		1
30		18		17		ar
31		18		19		1
32		15		12		ar
33		10		36		1
34		10		11		ar
35		19		20		1
36		12		11		ar
37		12		13		1
38		11		37		1
39		13		14		3
40		20		21		ar
41		23		24		ar
42		23		22		ar
43		24		42		1
44		31		1		1
45		1		32		1
46		1		30		1
47		21		22		ar
48		21		40		1
49		22		41		1

