@<TRIPOS>MOLECULE
LYH-2009-CMC-1537-1N
 49 52 0 0 0
SMALL
MULLIKEN_CHARGES
****
Gaussian 16 #p B3LYP/6-31G* opt
@<TRIPOS>ATOM
1		C		-1.7252		4.2593		-1.2641		C.3		1		UNL1		-0.4515
2		C		-0.9328		4.0175		0.0367		C.3		1		UNL1		-0.1515
3		C		-1.8272		4.1577		1.2851		C.3		1		UNL1		-0.4512
4		C		-0.1679		2.7024		0.0155		C.ar		1		UNL1		0.0988
5		C		1.2210		2.5838		0.0753		C.ar		1		UNL1		0.0537
6		CL		2.2367		4.0218		0.1866		Cl		1		UNL1		0.0129
7		N		1.9106		1.4471		0.0559		N.ar		1		UNL1		-0.4891
8		C		1.1859		0.3319		-0.0286		C.ar		1		UNL1		0.7001
9		N		1.7960		-0.9015		-0.0554		N.pl3		1		UNL1		-0.7721
10		C		3.1379		-1.2871		-0.0087		C.ar		1		UNL1		0.3814
11		C		4.2195		-0.3913		0.0762		C.ar		1		UNL1		-0.1627
12		C		5.5188		-0.8824		0.1155		C.ar		1		UNL1		-0.1538
13		C		5.7777		-2.2621		0.0721		C.ar		1		UNL1		0.1320
14		C		7.1208		-2.7541		0.1131		C.1		1		UNL1		0.2283
15		N		8.2126		-3.1569		0.1460		N.1		1		UNL1		-0.4838
16		C		4.6945		-3.1547		-0.0125		C.ar		1		UNL1		-0.1403
17		C		3.3972		-2.6718		-0.0520		C.ar		1		UNL1		-0.2058
18		N		-0.1573		0.2732		-0.0928		N.ar		1		UNL1		-0.5603
19		C		-0.7943		1.4298		-0.0698		C.ar		1		UNL1		0.5321
20		O		-2.1496		1.4197		-0.1199		O.3		1		UNL1		-0.5642
21		C		-2.8346		0.2102		-0.2975		C.ar		1		UNL1		0.3578
22		C		-2.8411		-0.4038		-1.5708		C.ar		1		UNL1		-0.1410
23		C		-3.5988		-1.5340		-1.7659		C.ar		1		UNL1		-0.2097
24		C		-4.3762		-2.0904		-0.7132		C.ar		1		UNL1		0.1472
25		C		-5.1682		-3.2559		-0.8900		C.ar		1		UNL1		-0.1937
26		C		-5.9122		-3.7674		0.1496		C.ar		1		UNL1		-0.1339
27		C		-5.8982		-3.1336		1.4161		C.ar		1		UNL1		-0.1354
28		C		-5.1420		-2.0011		1.6203		C.ar		1		UNL1		-0.1891
29		C		-4.3626		-1.4494		0.5688		C.ar		1		UNL1		0.1260
30		C		-3.5704		-0.2834		0.7485		C.ar		1		UNL1		-0.2349
31		H		-1.0696		4.2053		-2.1404		H		1		UNL1		0.1473
32		H		-2.1752		5.2585		-1.2425		H		1		UNL1		0.1471
33		H		-2.5291		3.5289		-1.3892		H		1		UNL1		0.1639
34		H		-0.1784		4.8061		0.0982		H		1		UNL1		0.1596
35		H		-1.2430		4.0345		2.2039		H		1		UNL1		0.1482
36		H		-2.6340		3.4198		1.2879		H		1		UNL1		0.1632
37		H		-2.2799		5.1558		1.3058		H		1		UNL1		0.1468
38		H		1.1195		-1.6520		-0.1151		H		1		UNL1		0.3512
39		H		4.0320		0.6721		0.1107		H		1		UNL1		0.1993
40		H		6.3490		-0.1863		0.1811		H		1		UNL1		0.1611
41		H		4.8782		-4.2237		-0.0466		H		1		UNL1		0.1586
42		H		2.5670		-3.3714		-0.1172		H		1		UNL1		0.1379
43		H		-2.2520		0.0270		-2.3735		H		1		UNL1		0.1445
44		H		-3.6143		-2.0155		-2.7404		H		1		UNL1		0.1400
45		H		-5.1774		-3.7390		-1.8642		H		1		UNL1		0.1342
46		H		-6.5140		-4.6598		0.0018		H		1		UNL1		0.1353
47		H		-6.4893		-3.5460		2.2292		H		1		UNL1		0.1360
48		H		-5.1310		-1.5136		2.5921		H		1		UNL1		0.1352
49		H		-3.5493		0.2200		1.7105		H		1		UNL1		0.1448
@<TRIPOS>BOND
1		44		23		1
2		43		22		1
3		31		1		1
4		45		25		1
5		23		22		ar
6		23		24		ar
7		22		21		ar
8		33		1		1
9		1		32		1
10		1		2		1
11		25		24		ar
12		25		26		ar
13		24		29		ar
14		21		20		1
15		21		30		ar
16		20		19		1
17		42		17		1
18		38		9		1
19		18		19		ar
20		18		8		ar
21		19		4		ar
22		9		8		1
23		9		10		1
24		17		16		ar
25		17		10		ar
26		41		16		1
27		8		7		ar
28		16		13		ar
29		10		11		ar
30		46		26		1
31		4		2		1
32		4		5		ar
33		2		34		1
34		2		3		1
35		7		5		ar
36		13		14		1
37		13		12		ar
38		5		6		1
39		11		39		1
40		11		12		ar
41		14		15		3
42		12		40		1
43		26		27		ar
44		29		30		ar
45		29		28		ar
46		30		49		1
47		3		36		1
48		3		37		1
49		3		35		1
50		27		28		ar
51		27		47		1
52		28		48		1

