@<TRIPOS>MOLECULE
LYH-2009-CMC-1537-1F
 43 46 0 0 0
SMALL
MULLIKEN_CHARGES
****
Gaussian 16 #p B3LYP/6-31G* opt
@<TRIPOS>ATOM
1		C		1.6525		4.7357		0.0035		C.3		1		UNL1		-0.5301
2		C		1.9423		3.2598		0.0109		C.ar		1		UNL1		0.1005
3		C		3.2171		2.7031		-0.0446		C.ar		1		UNL1		0.0697
4		CL		4.6078		3.7747		-0.1305		Cl		1		UNL1		0.0189
5		N		3.5021		1.4063		-0.0382		N.ar		1		UNL1		-0.4911
6		C		2.4489		0.5879		0.0271		C.ar		1		UNL1		0.6989
7		N		2.6241		-0.7767		0.0390		N.pl3		1		UNL1		-0.7715
8		C		3.7676		-1.5788		-0.0079		C.ar		1		UNL1		0.3811
9		C		3.5593		-2.9725		0.0154		C.ar		1		UNL1		-0.2058
10		C		4.6277		-3.8527		-0.0257		C.ar		1		UNL1		-0.1401
11		C		5.9438		-3.3624		-0.0919		C.ar		1		UNL1		0.1323
12		C		7.0528		-4.2660		-0.1343		C.1		1		UNL1		0.2287
13		N		7.9533		-5.0029		-0.1685		N.1		1		UNL1		-0.4829
14		C		6.1508		-1.9736		-0.1154		C.ar		1		UNL1		-0.1536
15		C		5.0831		-1.0851		-0.0743		C.ar		1		UNL1		-0.1623
16		N		1.1580		0.9688		0.0838		N.ar		1		UNL1		-0.5613
17		C		0.9321		2.2709		0.0744		C.ar		1		UNL1		0.5303
18		O		-0.3480		2.7175		0.1143		O.3		1		UNL1		-0.5675
19		C		-1.4030		1.8153		0.2783		C.ar		1		UNL1		0.3609
20		C		-1.5846		1.1628		1.5199		C.ar		1		UNL1		-0.1387
21		C		-2.6831		0.3575		1.7027		C.ar		1		UNL1		-0.2060
22		C		-3.6397		0.1750		0.6663		C.ar		1		UNL1		0.1458
23		C		-4.7811		-0.6522		0.8364		C.ar		1		UNL1		-0.2208
24		C		-5.6807		-0.7965		-0.1922		C.ar		1		UNL1		0.0792
25		BR		-7.2166		-1.9117		0.0368		Br		1		UNL1		-0.1238
26		C		-5.5028		-0.1367		-1.4302		C.ar		1		UNL1		-0.1519
27		C		-4.4036		0.6704		-1.6134		C.ar		1		UNL1		-0.1900
28		C		-3.4443		0.8506		-0.5817		C.ar		1		UNL1		0.1344
29		C		-2.3006		1.6753		-0.7492		C.ar		1		UNL1		-0.2364
30		H		2.0076		5.2036		-0.9220		H		1		UNL1		0.1792
31		H		2.1588		5.2411		0.8333		H		1		UNL1		0.1793
32		H		0.5803		4.9160		0.0909		H		1		UNL1		0.1844
33		H		1.7397		-1.2669		0.0835		H		1		UNL1		0.3511
34		H		2.5455		-3.3631		0.0661		H		1		UNL1		0.1383
35		H		4.4514		-4.9233		-0.0072		H		1		UNL1		0.1595
36		H		7.1636		-1.5866		-0.1666		H		1		UNL1		0.1616
37		H		5.2546		-0.0186		-0.0934		H		1		UNL1		0.1986
38		H		-0.8570		1.3095		2.3107		H		1		UNL1		0.1484
39		H		-2.8348		-0.1483		2.6527		H		1		UNL1		0.1453
40		H		-4.9357		-1.1659		1.7798		H		1		UNL1		0.1562
41		H		-6.2328		-0.2729		-2.2204		H		1		UNL1		0.1585
42		H		-4.2601		1.1812		-2.5621		H		1		UNL1		0.1455
43		H		-2.1360		2.1999		-1.6854		H		1		UNL1		0.1473
@<TRIPOS>BOND
1		42		27		1
2		41		26		1
3		43		29		1
4		27		26		ar
5		27		28		ar
6		26		24		ar
7		30		1		1
8		29		28		ar
9		29		19		ar
10		28		22		ar
11		24		25		1
12		24		23		ar
13		13		12		3
14		36		14		1
15		12		11		1
16		4		3		1
17		14		11		ar
18		14		15		ar
19		37		15		1
20		11		10		ar
21		15		8		ar
22		3		5		ar
23		3		2		ar
24		5		6		ar
25		10		35		1
26		10		9		ar
27		8		9		ar
28		8		7		1
29		1		2		1
30		1		32		1
31		1		31		1
32		2		17		ar
33		9		34		1
34		6		7		1
35		6		16		ar
36		7		33		1
37		17		16		ar
38		17		18		1
39		18		19		1
40		19		20		ar
41		22		23		ar
42		22		21		ar
43		23		40		1
44		20		21		ar
45		20		38		1
46		21		39		1

