@<TRIPOS>MOLECULE
LYH-2009-CMC-1537-1I
 46 49 0 0 0
SMALL
MULLIKEN_CHARGES
****
Gaussian 16 #p B3LYP/6-31G* opt
@<TRIPOS>ATOM
1		C		1.2682		4.3868		-0.6695		C.3		1		UNL1		-0.4513
2		C		0.6309		4.0210		0.6844		C.3		1		UNL1		-0.3306
3		C		-0.1718		2.7451		0.6252		C.ar		1		UNL1		0.0911
4		C		-1.5407		2.6418		0.3956		C.ar		1		UNL1		0.0660
5		CL		-2.5019		4.1015		0.1856		Cl		1		UNL1		0.0144
6		N		-2.2293		1.5080		0.3110		N.ar		1		UNL1		-0.4918
7		C		-1.5196		0.3873		0.4548		C.ar		1		UNL1		0.7027
8		N		-2.1311		-0.8431		0.3790		N.pl3		1		UNL1		-0.7728
9		C		-3.4581		-1.2216		0.1614		C.ar		1		UNL1		0.3818
10		C		-4.5211		-0.3198		-0.0287		C.ar		1		UNL1		-0.1622
11		C		-5.8067		-0.8047		-0.2360		C.ar		1		UNL1		-0.1538
12		C		-6.0700		-2.1840		-0.2599		C.ar		1		UNL1		0.1320
13		C		-7.3990		-2.6696		-0.4738		C.1		1		UNL1		0.2283
14		N		-8.4792		-3.0674		-0.6474		N.1		1		UNL1		-0.4839
15		C		-5.0054		-3.0827		-0.0699		C.ar		1		UNL1		-0.1403
16		C		-3.7218		-2.6060		0.1372		C.ar		1		UNL1		-0.2056
17		N		-0.1924		0.3188		0.6801		N.ar		1		UNL1		-0.5608
18		C		0.4374		1.4749		0.7550		C.ar		1		UNL1		0.5484
19		O		1.7773		1.4814		0.9888		O.3		1		UNL1		-0.5630
20		C		2.4748		0.2792		1.0162		C.ar		1		UNL1		0.3343
21		C		2.7069		-0.3267		2.2693		C.ar		1		UNL1		-0.1496
22		C		3.4754		-1.4615		2.3470		C.ar		1		UNL1		-0.2049
23		C		4.0441		-2.0388		1.1812		C.ar		1		UNL1		0.1546
24		C		4.8416		-3.2121		1.2489		C.ar		1		UNL1		-0.1972
25		C		5.3906		-3.7635		0.1146		C.ar		1		UNL1		-0.1296
26		C		5.1636		-3.1593		-1.1443		C.ar		1		UNL1		-0.1330
27		C		4.3967		-2.0208		-1.2497		C.ar		1		UNL1		-0.1871
28		C		3.8150		-1.4266		-0.0984		C.ar		1		UNL1		0.0852
29		C		3.0131		-0.2484		-0.1368		C.ar		1		UNL1		-0.0088
30		BR		2.6553		0.6343		-1.7888		Br		1		UNL1		-0.0968
31		H		0.4990		4.5735		-1.4266		H		1		UNL1		0.1557
32		H		1.9116		3.5770		-1.0277		H		1		UNL1		0.1695
33		H		1.8767		5.2928		-0.5724		H		1		UNL1		0.1491
34		H		-0.0136		4.8372		1.0229		H		1		UNL1		0.1657
35		H		1.4202		3.9024		1.4339		H		1		UNL1		0.1625
36		H		-1.4678		-1.5982		0.4978		H		1		UNL1		0.3509
37		H		-4.3301		0.7434		-0.0131		H		1		UNL1		0.1991
38		H		-6.6226		-0.1039		-0.3821		H		1		UNL1		0.1611
39		H		-5.1926		-4.1514		-0.0861		H		1		UNL1		0.1584
40		H		-2.9059		-3.3102		0.2826		H		1		UNL1		0.1376
41		H		2.2703		0.1292		3.1517		H		1		UNL1		0.1519
42		H		3.6590		-1.9322		3.3089		H		1		UNL1		0.1452
43		H		5.0100		-3.6674		2.2218		H		1		UNL1		0.1385
44		H		5.9983		-4.6614		0.1819		H		1		UNL1		0.1395
45		H		5.5991		-3.5980		-2.0376		H		1		UNL1		0.1409
46		H		4.2262		-1.5626		-2.2172		H		1		UNL1		0.1585
@<TRIPOS>BOND
1		46		27		1
2		45		26		1
3		30		29		1
4		31		1		1
5		27		26		ar
6		27		28		ar
7		26		25		ar
8		32		1		1
9		1		33		1
10		1		2		1
11		14		13		3
12		13		12		1
13		38		11		1
14		12		11		ar
15		12		15		ar
16		11		10		ar
17		29		28		ar
18		29		20		ar
19		28		23		ar
20		39		15		1
21		15		16		ar
22		10		37		1
23		10		9		ar
24		25		44		1
25		25		24		ar
26		16		9		ar
27		16		40		1
28		9		8		1
29		5		4		1
30		6		4		ar
31		6		7		ar
32		8		7		1
33		8		36		1
34		4		3		ar
35		7		17		ar
36		3		2		1
37		3		18		ar
38		17		18		ar
39		2		34		1
40		2		35		1
41		18		19		1
42		19		20		1
43		20		21		ar
44		23		24		ar
45		23		22		ar
46		24		43		1
47		21		22		ar
48		21		41		1
49		22		42		1

