@<TRIPOS>MOLECULE
LYH-2009-CMC-1537-1P
 50 53 0 0 0
SMALL
MULLIKEN_CHARGES
****
Gaussian 16 #p B3LYP/6-31G* opt
@<TRIPOS>ATOM
1		C		0.4955		4.6533		-1.2594		C.3		1		UNL1		-0.4510
2		C		-0.3290		4.3120		-0.0017		C.3		1		UNL1		-0.1525
3		C		0.4219		4.6831		1.2931		C.3		1		UNL1		-0.4516
4		C		-0.8153		2.8702		0.0007		C.ar		1		UNL1		0.0985
5		C		-2.1546		2.4770		-0.0451		C.ar		1		UNL1		0.0547
6		CL		-3.4370		3.6840		-0.1149		Cl		1		UNL1		0.0188
7		N		-2.6018		1.2255		-0.0402		N.ar		1		UNL1		-0.4871
8		C		-1.6692		0.2745		0.0130		C.ar		1		UNL1		0.7023
9		N		-2.0216		-1.0544		0.0221		N.pl3		1		UNL1		-0.7718
10		C		-3.2623		-1.6983		-0.0172		C.ar		1		UNL1		0.3805
11		C		-3.2399		-3.1071		-0.0030		C.ar		1		UNL1		-0.2058
12		C		-4.4160		-3.8378		-0.0375		C.ar		1		UNL1		-0.1399
13		C		-5.6559		-3.1769		-0.0874		C.ar		1		UNL1		0.1328
14		C		-6.8753		-3.9252		-0.1229		C.1		1		UNL1		0.2294
15		N		-7.8659		-4.5358		-0.1515		N.1		1		UNL1		-0.4816
16		C		-5.6774		-1.7728		-0.1016		C.ar		1		UNL1		-0.1535
17		C		-4.5009		-1.0338		-0.0672		C.ar		1		UNL1		-0.1623
18		N		-0.3396		0.4859		0.0589		N.ar		1		UNL1		-0.5635
19		C		0.0503		1.7469		0.0516		C.ar		1		UNL1		0.5302
20		O		1.3853		2.0056		0.0789		O.3		1		UNL1		-0.5624
21		C		2.2985		0.9655		0.2557		C.ar		1		UNL1		0.3661
22		C		2.3775		0.3019		1.5032		C.ar		1		UNL1		-0.1384
23		C		3.3519		-0.6459		1.6997		C.ar		1		UNL1		-0.2031
24		C		4.2823		-0.9651		0.6715		C.ar		1		UNL1		0.1454
25		C		5.2940		-1.9377		0.8537		C.ar		1		UNL1		-0.2153
26		C		6.1883		-2.2260		-0.1651		C.ar		1		UNL1		0.1324
27		C		7.2077		-3.2148		0.0311		C.1		1		UNL1		0.2367
28		N		8.0369		-4.0166		0.1835		N.1		1		UNL1		-0.4753
29		C		6.0994		-1.5421		-1.4121		C.ar		1		UNL1		-0.1425
30		C		5.1259		-0.5937		-1.6078		C.ar		1		UNL1		-0.1938
31		C		4.1932		-0.2772		-0.5828		C.ar		1		UNL1		0.1385
32		C		3.1767		0.6963		-0.7639		C.ar		1		UNL1		-0.2388
33		H		-0.0684		4.4323		-2.1723		H		1		UNL1		0.1497
34		H		0.7374		5.7223		-1.2641		H		1		UNL1		0.1492
35		H		1.4347		4.0942		-1.2904		H		1		UNL1		0.1606
36		H		-1.2272		4.9340		-0.0347		H		1		UNL1		0.1616
37		H		-0.1928		4.4807		2.1772		H		1		UNL1		0.1486
38		H		1.3595		4.1290		1.3908		H		1		UNL1		0.1616
39		H		0.6605		5.7528		1.2881		H		1		UNL1		0.1496
40		H		-1.2099		-1.6580		0.0560		H		1		UNL1		0.3506
41		H		-2.2864		-3.6289		0.0350		H		1		UNL1		0.1385
42		H		-4.3829		-4.9224		-0.0263		H		1		UNL1		0.1605
43		H		-6.6304		-1.2548		-0.1403		H		1		UNL1		0.1625
44		H		-4.5298		0.0460		-0.0792		H		1		UNL1		0.1994
45		H		1.6707		0.5532		2.2863		H		1		UNL1		0.1538
46		H		3.4254		-1.1617		2.6534		H		1		UNL1		0.1506
47		H		5.3671		-2.4612		1.8024		H		1		UNL1		0.1625
48		H		6.8084		-1.7810		-2.1978		H		1		UNL1		0.1623
49		H		5.0584		-0.0719		-2.5586		H		1		UNL1		0.1491
50		H		3.0928		1.2319		-1.7045		H		1		UNL1		0.1532
@<TRIPOS>BOND
1		49		30		1
2		48		29		1
3		33		1		1
4		50		32		1
5		30		29		ar
6		30		31		ar
7		29		26		ar
8		35		1		1
9		34		1		1
10		1		2		1
11		32		31		ar
12		32		21		ar
13		31		24		ar
14		26		27		1
15		26		25		ar
16		15		14		3
17		43		16		1
18		14		13		1
19		6		5		1
20		16		13		ar
21		16		17		ar
22		13		12		ar
23		44		17		1
24		17		10		ar
25		5		7		ar
26		5		4		ar
27		7		8		ar
28		12		42		1
29		12		11		ar
30		36		2		1
31		10		11		ar
32		10		9		1
33		11		41		1
34		2		4		1
35		2		3		1
36		4		19		ar
37		8		9		1
38		8		18		ar
39		9		40		1
40		27		28		3
41		19		18		ar
42		19		20		1
43		20		21		1
44		21		22		ar
45		24		25		ar
46		24		23		ar
47		25		47		1
48		39		3		1
49		3		38		1
50		3		37		1
51		22		23		ar
52		22		45		1
53		23		46		1

