@<TRIPOS>MOLECULE
MG-2014-EJMC-600-4-1f
 44 46 0 0 0
SMALL
MULLIKEN_CHARGES
****
Gaussian 16 #p B3LYP/6-31G* opt
@<TRIPOS>ATOM
1		C		3.0058		-3.7498		-0.8593		C.3		1		UNL1		-0.3152
2		N		2.4625		-3.5902		0.4887		N.3		1		UNL1		-0.5451
3		C		1.7075		-2.3725		0.7852		C.3		1		UNL1		-0.1063
4		C		2.5825		-1.1471		0.5181		C.ar		1		UNL1		0.1762
5		C		3.6509		-0.8988		1.3919		C.ar		1		UNL1		-0.1648
6		C		4.5135		0.1699		1.1873		C.ar		1		UNL1		-0.1290
7		C		4.3270		1.0248		0.0822		C.ar		1		UNL1		-0.0038
8		C		5.2020		2.1237		-0.1353		C.1		1		UNL1		0.0244
9		C		5.9527		3.0645		-0.3205		C.1		1		UNL1		0.3872
10		C		6.7952		4.1212		-0.5292		C.1		1		UNL1		-0.0663
11		N		7.5152		5.0241		-0.7074		N.1		1		UNL1		-0.4643
12		C		3.2618		0.7738		-0.8027		C.ar		1		UNL1		-0.1365
13		C		2.4050		-0.3003		-0.5820		C.ar		1		UNL1		-0.1691
14		C		0.2935		-2.2697		0.1938		C.ar		1		UNL1		0.3095
15		C		-0.2968		-3.2836		-0.5716		C.ar		1		UNL1		-0.2230
16		C		-1.6175		-3.0814		-0.9604		C.ar		1		UNL1		0.0727
17		N		-2.3231		-1.9946		-0.6375		N.ar		1		UNL1		-0.4738
18		C		-1.6687		-1.0880		0.1054		C.ar		1		UNL1		0.6881
19		N		-2.2999		0.0698		0.5037		N.pl3		1		UNL1		-0.7650
20		C		-3.5909		0.5614		0.2977		C.ar		1		UNL1		0.3815
21		C		-3.8879		1.8134		0.8735		C.ar		1		UNL1		-0.2056
22		C		-5.1403		2.3861		0.7263		C.ar		1		UNL1		-0.1401
23		C		-6.1396		1.7203		-0.0054		C.ar		1		UNL1		0.1319
24		C		-7.4363		2.3049		-0.1617		C.1		1		UNL1		0.2283
25		N		-8.4911		2.7810		-0.2882		N.1		1		UNL1		-0.4828
26		C		-5.8435		0.4732		-0.5792		C.ar		1		UNL1		-0.1529
27		C		-4.5890		-0.1065		-0.4352		C.ar		1		UNL1		-0.1600
28		N		-0.3946		-1.1771		0.5355		N.ar		1		UNL1		-0.5356
29		H		3.7782		-2.9952		-1.0339		H		1		UNL1		0.1721
30		H		2.2723		-3.6719		-1.6793		H		1		UNL1		0.1288
31		H		3.4833		-4.7325		-0.9219		H		1		UNL1		0.1573
32		H		1.9309		-4.4090		0.7713		H		1		UNL1		0.3041
33		H		1.5346		-2.3890		1.8715		H		1		UNL1		0.1726
34		H		3.8086		-1.5627		2.2372		H		1		UNL1		0.1494
35		H		5.3330		0.3556		1.8742		H		1		UNL1		0.1570
36		H		3.1147		1.4243		-1.6589		H		1		UNL1		0.1565
37		H		1.5860		-0.4705		-1.2727		H		1		UNL1		0.1449
38		H		0.2351		-4.1840		-0.8491		H		1		UNL1		0.1436
39		H		-2.1401		-3.8243		-1.5608		H		1		UNL1		0.1579
40		H		-1.6847		0.6559		1.0541		H		1		UNL1		0.3484
41		H		-3.1230		2.3377		1.4416		H		1		UNL1		0.1390
42		H		-5.3533		3.3505		1.1758		H		1		UNL1		0.1600
43		H		-6.6093		-0.0473		-1.1458		H		1		UNL1		0.1592
44		H		-4.3696		-1.0661		-0.8801		H		1		UNL1		0.1884
@<TRIPOS>BOND
1		30		1		1
2		36		12		1
3		39		16		1
4		37		13		1
5		43		26		1
6		29		1		1
7		16		17		ar
8		16		15		ar
9		31		1		1
10		44		27		1
11		1		2		1
12		38		15		1
13		12		13		ar
14		12		7		ar
15		11		10		3
16		17		18		ar
17		13		4		ar
18		26		27		ar
19		26		23		ar
20		15		14		ar
21		10		9		1
22		27		20		ar
23		9		8		3
24		25		24		3
25		24		23		1
26		8		7		1
27		23		22		ar
28		7		6		ar
29		18		19		1
30		18		28		ar
31		14		28		ar
32		14		3		1
33		20		19		1
34		20		21		ar
35		2		32		1
36		2		3		1
37		19		40		1
38		4		3		1
39		4		5		ar
40		22		21		ar
41		22		42		1
42		3		33		1
43		21		41		1
44		6		5		ar
45		6		35		1
46		5		34		1

