@<TRIPOS>MOLECULE
MG-2014-EJMC-600-4-1l
 50 52 0 0 0
SMALL
MULLIKEN_CHARGES
****
Gaussian 16 #p B3LYP/6-31G* opt
@<TRIPOS>ATOM
1		C		2.9201		5.5519		0.9889		C.3		1		UNL1		-0.4391
2		C		3.7081		4.2576		1.2115		C.3		1		UNL1		-0.2656
3		C		2.9307		2.9779		0.8806		C.3		1		UNL1		-0.1329
4		N		2.5698		2.9381		-0.5417		N.3		1		UNL1		-0.5521
5		C		1.7827		1.7857		-1.0138		C.3		1		UNL1		-0.1358
6		C		2.4079		0.4240		-0.7107		C.ar		1		UNL1		0.2151
7		C		2.2656		-0.2158		0.5307		C.ar		1		UNL1		-0.1666
8		C		2.9265		-1.4071		0.8031		C.ar		1		UNL1		-0.1369
9		C		3.7542		-2.0004		-0.1714		C.ar		1		UNL1		-0.0064
10		C		4.4291		-3.2209		0.1016		C.1		1		UNL1		0.0252
11		C		5.0087		-4.2663		0.3349		C.1		1		UNL1		0.3864
12		C		5.6595		-5.4401		0.5972		C.1		1		UNL1		-0.0665
13		N		6.2157		-6.4429		0.8211		N.1		1		UNL1		-0.4639
14		C		3.8975		-1.3679		-1.4207		C.ar		1		UNL1		-0.1252
15		C		3.2311		-0.1739		-1.6745		C.ar		1		UNL1		-0.2045
16		C		0.3139		1.9137		-0.6039		C.ar		1		UNL1		0.3185
17		C		-0.2595		3.1581		-0.3083		C.ar		1		UNL1		-0.2033
18		C		-1.6203		3.1583		-0.0289		C.ar		1		UNL1		0.0690
19		N		-2.3767		2.0541		-0.0354		N.ar		1		UNL1		-0.4750
20		C		-1.7303		0.9209		-0.3398		C.ar		1		UNL1		0.6883
21		N		-2.4082		-0.2791		-0.3852		N.pl3		1		UNL1		-0.7658
22		C		-3.7456		-0.6156		-0.1707		C.ar		1		UNL1		0.3820
23		C		-4.0853		-1.9766		-0.3133		C.ar		1		UNL1		-0.2060
24		C		-5.3863		-2.4102		-0.1207		C.ar		1		UNL1		-0.1403
25		C		-6.3938		-1.4911		0.2223		C.ar		1		UNL1		0.1314
26		C		-7.7405		-1.9312		0.4228		C.1		1		UNL1		0.2277
27		N		-8.8359		-2.2901		0.5857		N.1		1		UNL1		-0.4839
28		C		-6.0555		-0.1354		0.3644		C.ar		1		UNL1		-0.1531
29		C		-4.7521		0.3060		0.1727		C.ar		1		UNL1		-0.1604
30		N		-0.4164		0.7990		-0.6235		N.ar		1		UNL1		-0.5500
31		H		2.6101		5.6508		-0.0560		H		1		UNL1		0.1590
32		H		3.5229		6.4288		1.2499		H		1		UNL1		0.1466
33		H		2.0166		5.5731		1.6111		H		1		UNL1		0.1408
34		H		4.6319		4.2779		0.6140		H		1		UNL1		0.1323
35		H		4.0308		4.1928		2.2587		H		1		UNL1		0.1429
36		H		2.0013		2.9532		1.4646		H		1		UNL1		0.1413
37		H		3.5254		2.1041		1.1943		H		1		UNL1		0.1347
38		H		3.4204		2.9961		-1.0987		H		1		UNL1		0.3020
39		H		1.7730		1.8848		-2.1089		H		1		UNL1		0.1725
40		H		1.6162		0.2125		1.2873		H		1		UNL1		0.1456
41		H		2.8073		-1.8921		1.7668		H		1		UNL1		0.1565
42		H		4.5253		-1.8211		-2.1812		H		1		UNL1		0.1565
43		H		3.3488		0.3006		-2.6464		H		1		UNL1		0.1365
44		H		0.3347		4.0619		-0.3100		H		1		UNL1		0.1746
45		H		-2.1393		4.0843		0.2130		H		1		UNL1		0.1562
46		H		-1.7910		-1.0439		-0.6283		H		1		UNL1		0.3475
47		H		-3.3146		-2.6967		-0.5785		H		1		UNL1		0.1379
48		H		-5.6314		-3.4612		-0.2343		H		1		UNL1		0.1591
49		H		-6.8271		0.5807		0.6289		H		1		UNL1		0.1585
50		H		-4.5000		1.3506		0.2839		H		1		UNL1		0.1888
@<TRIPOS>BOND
1		43		15		1
2		42		14		1
3		39		5		1
4		15		14		ar
5		15		6		ar
6		14		9		ar
7		38		4		1
8		5		6		1
9		5		16		1
10		5		4		1
11		6		7		ar
12		46		21		1
13		30		16		ar
14		30		20		ar
15		16		17		ar
16		47		23		1
17		4		3		1
18		21		20		1
19		21		22		1
20		20		19		ar
21		23		22		ar
22		23		24		ar
23		44		17		1
24		17		18		ar
25		48		24		1
26		9		10		1
27		9		8		ar
28		22		29		ar
29		24		25		ar
30		31		1		1
31		19		18		ar
32		18		45		1
33		10		11		3
34		29		50		1
35		29		28		ar
36		25		28		ar
37		25		26		1
38		11		12		1
39		28		49		1
40		26		27		3
41		7		8		ar
42		7		40		1
43		12		13		3
44		34		2		1
45		8		41		1
46		3		37		1
47		3		2		1
48		3		36		1
49		1		2		1
50		1		32		1
51		1		33		1
52		2		35		1

