@<TRIPOS>MOLECULE
MG-2014-EJMC-600-4-1q
 49 51 0 0 0
SMALL
MULLIKEN_CHARGES
****
Gaussian 16 #p B3LYP/6-31G* opt
@<TRIPOS>ATOM
1		C		4.6955		-4.1791		-0.0217		C.3		1		UNL1		-0.4593
2		C		5.1832		-2.7438		-0.1794		C.3		1		UNL1		0.1416
3		O		6.3437		-2.8064		-1.0085		O.3		1		UNL1		-0.6223
4		C		4.1416		-1.8126		-0.8190		C.3		1		UNL1		-0.1460
5		N		2.9506		-1.6588		0.0217		N.3		1		UNL1		-0.5994
6		C		2.0024		-0.6584		-0.4744		C.3		1		UNL1		-0.0702
7		C		2.5199		0.7664		-0.2617		C.ar		1		UNL1		0.1560
8		C		3.3137		1.0894		0.8463		C.ar		1		UNL1		-0.1774
9		C		3.7459		2.3955		1.0528		C.ar		1		UNL1		-0.1376
10		C		3.3812		3.4066		0.1480		C.ar		1		UNL1		0.1296
11		C		3.8275		4.7536		0.3543		C.1		1		UNL1		0.2381
12		N		4.1910		5.8461		0.5216		N.1		1		UNL1		-0.4751
13		C		2.5817		3.0898		-0.9626		C.ar		1		UNL1		-0.1377
14		C		2.1601		1.7789		-1.1597		C.ar		1		UNL1		-0.1771
15		C		0.6583		-0.8099		0.2353		C.ar		1		UNL1		0.3037
16		C		0.5555		-1.2629		1.5573		C.ar		1		UNL1		-0.2013
17		C		-0.7289		-1.3295		2.0845		C.ar		1		UNL1		0.0737
18		N		-1.8251		-0.9853		1.4006		N.ar		1		UNL1		-0.4745
19		C		-1.6118		-0.5617		0.1465		C.ar		1		UNL1		0.6960
20		N		-2.6704		-0.1815		-0.6489		N.pl3		1		UNL1		-0.7658
21		C		-4.0484		-0.1331		-0.4274		C.ar		1		UNL1		0.3822
22		C		-4.6737		-0.4996		0.7785		C.ar		1		UNL1		-0.1594
23		C		-6.0559		-0.4142		0.8924		C.ar		1		UNL1		-0.1528
24		C		-6.8485		0.0332		-0.1771		C.ar		1		UNL1		0.1320
25		C		-8.2711		0.1150		-0.0460		C.1		1		UNL1		0.2283
26		N		-9.4286		0.1814		0.0591		N.1		1		UNL1		-0.4829
27		C		-6.2211		0.3997		-1.3810		C.ar		1		UNL1		-0.1399
28		C		-4.8440		0.3167		-1.5007		C.ar		1		UNL1		-0.2054
29		N		-0.4161		-0.4620		-0.4726		N.ar		1		UNL1		-0.5484
30		H		5.5024		-4.8028		0.3743		H		1		UNL1		0.1691
31		H		3.8497		-4.2390		0.6721		H		1		UNL1		0.1406
32		H		4.3924		-4.5902		-0.9917		H		1		UNL1		0.1552
33		H		5.4379		-2.3412		0.8143		H		1		UNL1		0.1221
34		H		6.7344		-1.9191		-1.0443		H		1		UNL1		0.3911
35		H		4.5928		-0.8201		-0.9429		H		1		UNL1		0.1396
36		H		3.9089		-2.1861		-1.8324		H		1		UNL1		0.1343
37		H		2.4670		-2.5534		0.0727		H		1		UNL1		0.3118
38		H		1.7896		-0.7747		-1.5504		H		1		UNL1		0.1434
39		H		3.5983		0.3026		1.5372		H		1		UNL1		0.1604
40		H		4.3643		2.6416		1.9102		H		1		UNL1		0.1606
41		H		2.3024		3.8701		-1.6632		H		1		UNL1		0.1614
42		H		1.5391		1.5370		-2.0176		H		1		UNL1		0.1487
43		H		1.4305		-1.5421		2.1304		H		1		UNL1		0.1628
44		H		-0.8960		-1.6729		3.1040		H		1		UNL1		0.1588
45		H		-2.3588		0.1134		-1.5656		H		1		UNL1		0.3458
46		H		-4.0713		-0.8446		1.6061		H		1		UNL1		0.1894
47		H		-6.5322		-0.6985		1.8254		H		1		UNL1		0.1596
48		H		-6.8196		0.7478		-2.2165		H		1		UNL1		0.1595
49		H		-4.3699		0.6029		-2.4368		H		1		UNL1		0.1369
@<TRIPOS>BOND
1		49		28		1
2		48		27		1
3		42		14		1
4		36		4		1
5		41		13		1
6		45		20		1
7		38		6		1
8		28		27		ar
9		28		21		ar
10		27		24		ar
11		14		13		ar
12		14		7		ar
13		34		3		1
14		3		2		1
15		32		1		1
16		13		10		ar
17		35		4		1
18		4		2		1
19		4		5		1
20		20		21		1
21		20		19		1
22		6		7		1
23		6		5		1
24		6		15		1
25		29		19		ar
26		29		15		ar
27		21		22		ar
28		7		8		ar
29		2		1		1
30		2		33		1
31		24		25		1
32		24		23		ar
33		25		26		3
34		1		30		1
35		1		31		1
36		5		37		1
37		19		18		ar
38		10		11		1
39		10		9		ar
40		15		16		ar
41		11		12		3
42		22		23		ar
43		22		46		1
44		8		9		ar
45		8		39		1
46		23		47		1
47		9		40		1
48		18		17		ar
49		16		17		ar
50		16		43		1
51		17		44		1

