@<TRIPOS>MOLECULE
MG-2014-EJMC-600-4-1i
 47 49 0 0 0
SMALL
MULLIKEN_CHARGES
****
Gaussian 16 #p B3LYP/6-31G* opt
@<TRIPOS>ATOM
1		C		0.8218		4.5707		-1.0089		C.3		1		UNL1		-0.4392
2		C		0.5939		3.8700		0.3307		C.3		1		UNL1		-0.1270
3		N		1.6234		2.8536		0.6060		N.3		1		UNL1		-0.5589
4		C		1.4744		1.5752		-0.1026		C.3		1		UNL1		-0.1015
5		C		2.7839		0.7861		-0.1189		C.ar		1		UNL1		0.1341
6		C		2.7995		-0.5385		-0.5850		C.ar		1		UNL1		-0.1751
7		C		3.9831		-1.2616		-0.6497		C.ar		1		UNL1		-0.1343
8		C		5.1961		-0.6710		-0.2406		C.ar		1		UNL1		0.0003
9		C		6.4110		-1.4067		-0.2966		C.1		1		UNL1		0.0234
10		C		7.4516		-2.0375		-0.3433		C.1		1		UNL1		0.3874
11		C		8.6204		-2.7456		-0.3952		C.1		1		UNL1		-0.0665
12		N		9.6190		-3.3507		-0.4391		N.1		1		UNL1		-0.4645
13		C		5.1845		0.6581		0.2218		C.ar		1		UNL1		-0.1299
14		C		3.9918		1.3733		0.2758		C.ar		1		UNL1		-0.1835
15		C		0.3013		0.7640		0.4484		C.ar		1		UNL1		0.3337
16		C		0.3714		0.0997		1.6849		C.ar		1		UNL1		-0.2074
17		C		-0.7881		-0.5247		2.1209		C.ar		1		UNL1		0.0694
18		N		-1.9345		-0.5149		1.4278		N.ar		1		UNL1		-0.4755
19		C		-1.8963		0.1436		0.2631		C.ar		1		UNL1		0.6905
20		N		-3.0163		0.2163		-0.5353		N.pl3		1		UNL1		-0.7639
21		C		-4.3111		-0.2873		-0.3928		C.ar		1		UNL1		0.3815
22		C		-4.7545		-1.0391		0.7107		C.ar		1		UNL1		-0.1597
23		C		-6.0673		-1.4922		0.7537		C.ar		1		UNL1		-0.1529
24		C		-6.9679		-1.2144		-0.2875		C.ar		1		UNL1		0.1321
25		C		-8.3174		-1.6869		-0.2295		C.1		1		UNL1		0.2284
26		N		-9.4156		-2.0704		-0.1835		N.1		1		UNL1		-0.4825
27		C		-6.5222		-0.4632		-1.3894		C.ar		1		UNL1		-0.1401
28		C		-5.2149		-0.0087		-1.4381		C.ar		1		UNL1		-0.2054
29		N		-0.8269		0.7856		-0.2635		N.ar		1		UNL1		-0.5612
30		H		1.8213		5.0156		-1.0447		H		1		UNL1		0.1584
31		H		0.0791		5.3638		-1.1509		H		1		UNL1		0.1475
32		H		0.7260		3.8797		-1.8539		H		1		UNL1		0.1511
33		H		-0.4284		3.4595		0.3657		H		1		UNL1		0.1385
34		H		0.6669		4.6083		1.1372		H		1		UNL1		0.1423
35		H		1.6679		2.6754		1.6078		H		1		UNL1		0.3028
36		H		1.2135		1.8130		-1.1399		H		1		UNL1		0.1814
37		H		1.8737		-1.0098		-0.9039		H		1		UNL1		0.1475
38		H		3.9829		-2.2841		-1.0137		H		1		UNL1		0.1570
39		H		6.1152		1.1221		0.5330		H		1		UNL1		0.1561
40		H		3.9847		2.4035		0.6135		H		1		UNL1		0.1620
41		H		1.2891		0.0590		2.2610		H		1		UNL1		0.1514
42		H		-0.8117		-1.0652		3.0656		H		1		UNL1		0.1587
43		H		-2.8353		0.7414		-1.3816		H		1		UNL1		0.3468
44		H		-4.0677		-1.2573		1.5155		H		1		UNL1		0.1894
45		H		-6.4034		-2.0717		1.6078		H		1		UNL1		0.1598
46		H		-7.2060		-0.2405		-2.2021		H		1		UNL1		0.1597
47		H		-4.8814		0.5713		-2.2956		H		1		UNL1		0.1377
@<TRIPOS>BOND
1		47		28		1
2		46		27		1
3		32		1		1
4		28		27		ar
5		28		21		ar
6		27		24		ar
7		43		20		1
8		31		1		1
9		36		4		1
10		30		1		1
11		38		7		1
12		1		2		1
13		37		6		1
14		7		6		ar
15		7		8		ar
16		6		5		ar
17		20		21		1
18		20		19		1
19		12		11		3
20		11		10		1
21		21		22		ar
22		10		9		3
23		9		8		1
24		24		25		1
25		24		23		ar
26		29		19		ar
27		29		15		ar
28		8		13		ar
29		25		26		3
30		5		4		1
31		5		14		ar
32		4		15		1
33		4		3		1
34		13		14		ar
35		13		39		1
36		19		18		ar
37		14		40		1
38		2		33		1
39		2		3		1
40		2		34		1
41		15		16		ar
42		3		35		1
43		22		23		ar
44		22		44		1
45		23		45		1
46		18		17		ar
47		16		17		ar
48		16		41		1
49		17		42		1

