@<TRIPOS>MOLECULE
MG-2014-EJMC-600-4-1k
 48 50 0 0 0
SMALL
MULLIKEN_CHARGES
****
Gaussian 16 #p B3LYP/6-31G* opt
@<TRIPOS>ATOM
1		C		5.3806		-4.0583		-0.1250		C.3		1		UNL1		-0.4363
2		C		5.7383		-2.5806		0.0588		C.3		1		UNL1		-0.2683
3		C		4.7379		-1.6098		-0.5778		C.3		1		UNL1		-0.1167
4		N		3.4146		-1.7223		0.0466		N.3		1		UNL1		-0.5554
5		C		2.3825		-0.8552		-0.5310		C.3		1		UNL1		-0.1195
6		C		2.6103		0.6350		-0.2712		C.ar		1		UNL1		0.2250
7		C		2.4723		1.1625		1.0218		C.ar		1		UNL1		-0.1907
8		C		2.7458		2.4988		1.2842		C.ar		1		UNL1		-0.1377
9		C		3.1709		3.3435		0.2431		C.ar		1		UNL1		0.1255
10		C		3.4555		4.7240		0.5060		C.1		1		UNL1		0.2380
11		N		3.6868		5.8440		0.7196		N.1		1		UNL1		-0.4753
12		C		3.3125		2.8276		-1.0537		C.ar		1		UNL1		-0.1338
13		C		3.0330		1.4851		-1.2987		C.ar		1		UNL1		-0.2042
14		C		0.9857		-1.3096		-0.1025		C.ar		1		UNL1		0.3093
15		C		0.7571		-2.5404		0.5237		C.ar		1		UNL1		-0.2088
16		C		-0.5670		-2.8390		0.8267		C.ar		1		UNL1		0.0720
17		N		-1.5905		-2.0257		0.5463		N.ar		1		UNL1		-0.4745
18		C		-1.2593		-0.8779		-0.0635		C.ar		1		UNL1		0.6898
19		N		-2.2348		0.0344		-0.4072		N.pl3		1		UNL1		-0.7666
20		C		-3.6223		0.0337		-0.2580		C.ar		1		UNL1		0.3823
21		C		-4.3095		1.1679		-0.7372		C.ar		1		UNL1		-0.2058
22		C		-5.6875		1.2616		-0.6366		C.ar		1		UNL1		-0.1403
23		C		-6.4256		0.2179		-0.0504		C.ar		1		UNL1		0.1313
24		C		-7.8496		0.3068		0.0567		C.1		1		UNL1		0.2275
25		N		-9.0083		0.3798		0.1433		N.1		1		UNL1		-0.4844
26		C		-5.7412		-0.9117		0.4272		C.ar		1		UNL1		-0.1531
27		C		-4.3589		-1.0116		0.3295		C.ar		1		UNL1		-0.1604
28		N		-0.0160		-0.4797		-0.3988		N.ar		1		UNL1		-0.5445
29		H		4.4006		-4.2843		0.3056		H		1		UNL1		0.1574
30		H		6.1235		-4.7055		0.3542		H		1		UNL1		0.1451
31		H		5.3441		-4.3228		-1.1890		H		1		UNL1		0.1425
32		H		6.7259		-2.3789		-0.3758		H		1		UNL1		0.1425
33		H		5.8298		-2.3482		1.1304		H		1		UNL1		0.1317
34		H		5.1440		-0.5846		-0.5311		H		1		UNL1		0.1301
35		H		4.6188		-1.8535		-1.6426		H		1		UNL1		0.1398
36		H		3.5011		-1.5232		1.0439		H		1		UNL1		0.2979
37		H		2.4263		-1.0090		-1.6183		H		1		UNL1		0.1695
38		H		2.1312		0.5233		1.8330		H		1		UNL1		0.1400
39		H		2.6300		2.8995		2.2862		H		1		UNL1		0.1617
40		H		3.6388		3.4786		-1.8585		H		1		UNL1		0.1614
41		H		3.1408		1.0948		-2.3076		H		1		UNL1		0.1426
42		H		1.5717		-3.2177		0.7408		H		1		UNL1		0.1665
43		H		-0.8283		-3.7747		1.3183		H		1		UNL1		0.1560
44		H		-1.8362		0.8527		-0.8503		H		1		UNL1		0.3475
45		H		-3.7495		1.9816		-1.1922		H		1		UNL1		0.1379
46		H		-6.2012		2.1414		-1.0101		H		1		UNL1		0.1588
47		H		-6.3032		-1.7218		0.8813		H		1		UNL1		0.1582
48		H		-3.8400		-1.8836		0.7001		H		1		UNL1		0.1885
@<TRIPOS>BOND
1		41		13		1
2		40		12		1
3		35		3		1
4		37		5		1
5		13		12		ar
6		13		6		ar
7		45		21		1
8		31		1		1
9		12		9		ar
10		46		22		1
11		44		19		1
12		21		22		ar
13		21		20		ar
14		22		23		ar
15		3		34		1
16		3		4		1
17		3		2		1
18		5		6		1
19		5		14		1
20		5		4		1
21		19		20		1
22		19		18		1
23		28		14		ar
24		28		18		ar
25		32		2		1
26		6		7		ar
27		20		27		ar
28		1		2		1
29		1		29		1
30		1		30		1
31		14		15		ar
32		18		17		ar
33		23		24		1
34		23		26		ar
35		4		36		1
36		24		25		3
37		2		33		1
38		9		10		1
39		9		8		ar
40		27		26		ar
41		27		48		1
42		26		47		1
43		10		11		3
44		15		42		1
45		15		16		ar
46		17		16		ar
47		16		43		1
48		7		8		ar
49		7		38		1
50		8		39		1

