@<TRIPOS>MOLECULE
MG2003-CJMC-255-12
 50 52 0 0 0
SMALL
MULLIKEN_CHARGES
****
Gaussian 16 #p B3LYP/6-31G* opt
@<TRIPOS>ATOM
1		C		-0.8608		-3.8154		-1.4330		C.3		1		UNL1		-0.4694
2		C		0.6110		-3.4688		-1.2187		C.3		1		UNL1		-0.0393
3		O		0.9738		-3.4065		0.1605		O.3		1		UNL1		-0.4425
4		C		0.6463		-2.2385		0.8604		C.3		1		UNL1		0.0758
5		N		1.5452		-1.1017		0.5583		N.ar		1		UNL1		-0.5652
6		C		1.1858		0.0339		-0.1898		C.ar		1		UNL1		0.3099
7		C		-0.2400		0.0707		-0.7038		C.3		1		UNL1		-0.4746
8		C		-1.3019		0.5215		0.2955		C.ar		1		UNL1		0.1156
9		C		-0.9644		1.0280		1.5343		C.ar		1		UNL1		-0.1965
10		C		-1.9515		1.4512		2.4569		C.ar		1		UNL1		-0.1358
11		C		-3.2828		1.3649		2.1335		C.ar		1		UNL1		-0.1864
12		C		-3.6850		0.8579		0.8684		C.ar		1		UNL1		0.1366
13		C		-5.0571		0.7667		0.5139		C.ar		1		UNL1		-0.1925
14		C		-5.4440		0.2829		-0.7151		C.ar		1		UNL1		-0.1315
15		C		-4.4655		-0.1300		-1.6478		C.ar		1		UNL1		-0.1327
16		C		-3.1250		-0.0569		-1.3341		C.ar		1		UNL1		-0.2006
17		C		-2.6874		0.4317		-0.0715		C.ar		1		UNL1		0.0758
18		C		2.0720		1.0506		-0.4279		C.ar		1		UNL1		-0.0026
19		C		1.7248		2.3416		-1.1656		C.3		1		UNL1		-0.1436
20		C		2.4538		2.4440		-2.5207		C.3		1		UNL1		-0.4508
21		C		1.9785		3.5911		-0.2957		C.3		1		UNL1		-0.4561
22		C		3.4554		0.9131		0.0457		C.ar		1		UNL1		0.6024
23		O		4.3733		1.6996		-0.1591		O.2		1		UNL1		-0.5139
24		N		3.6989		-0.2334		0.8059		N.ar		1		UNL1		-0.6994
25		C		2.8171		-1.2397		1.1389		C.ar		1		UNL1		0.7902
26		O		3.1219		-2.1633		1.8724		O.2		1		UNL1		-0.5052
27		H		-1.5351		-3.0422		-1.0464		H		1		UNL1		0.1548
28		H		-1.1032		-4.7562		-0.9289		H		1		UNL1		0.1680
29		H		-1.0692		-3.9323		-2.5031		H		1		UNL1		0.1482
30		H		1.2437		-4.2579		-1.6365		H		1		UNL1		0.1597
31		H		0.8832		-2.5360		-1.7342		H		1		UNL1		0.1320
32		H		-0.3837		-1.9169		0.7039		H		1		UNL1		0.1583
33		H		0.7948		-2.4832		1.9103		H		1		UNL1		0.1948
34		H		-0.2734		0.7215		-1.5809		H		1		UNL1		0.1917
35		H		-0.5035		-0.9182		-1.0890		H		1		UNL1		0.1729
36		H		0.0814		1.1107		1.8142		H		1		UNL1		0.1412
37		H		-1.6435		1.8424		3.4224		H		1		UNL1		0.1387
38		H		-4.0474		1.6848		2.8371		H		1		UNL1		0.1353
39		H		-5.8016		1.0909		1.2371		H		1		UNL1		0.1358
40		H		-6.4976		0.2198		-0.9724		H		1		UNL1		0.1360
41		H		-4.7727		-0.5055		-2.6200		H		1		UNL1		0.1348
42		H		-2.3951		-0.3711		-2.0729		H		1		UNL1		0.1314
43		H		0.6511		2.3374		-1.3722		H		1		UNL1		0.1301
44		H		3.5363		2.4740		-2.3756		H		1		UNL1		0.1850
45		H		2.2148		1.5894		-3.1650		H		1		UNL1		0.1310
46		H		2.1491		3.3576		-3.0451		H		1		UNL1		0.1390
47		H		1.6412		4.4872		-0.8301		H		1		UNL1		0.1384
48		H		3.0399		3.7028		-0.0662		H		1		UNL1		0.1859
49		H		1.4203		3.5335		0.6460		H		1		UNL1		0.1369
50		H		4.6345		-0.3295		1.1848		H		1		UNL1		0.3527
@<TRIPOS>BOND
1		45		20		1
2		46		20		1
3		41		15		1
4		20		44		1
5		20		19		1
6		29		1		1
7		42		16		1
8		31		2		1
9		15		16		ar
10		15		14		ar
11		30		2		1
12		34		7		1
13		1		2		1
14		1		27		1
15		1		28		1
16		43		19		1
17		16		17		ar
18		2		3		1
19		19		18		1
20		19		21		1
21		35		7		1
22		40		14		1
23		47		21		1
24		14		13		ar
25		7		6		1
26		7		8		1
27		18		6		ar
28		18		22		ar
29		21		48		1
30		21		49		1
31		6		5		ar
32		23		22		2
33		17		8		ar
34		17		12		ar
35		22		24		ar
36		3		4		1
37		8		9		ar
38		13		12		ar
39		13		39		1
40		5		4		1
41		5		25		ar
42		32		4		1
43		24		25		ar
44		24		50		1
45		4		33		1
46		12		11		ar
47		25		26		2
48		9		36		1
49		9		10		ar
50		11		10		ar
51		11		38		1
52		10		37		1

