@<TRIPOS>MOLECULE
MG2003-CJMC-255-7
 47 49 0 0 0
SMALL
MULLIKEN_CHARGES
****
Gaussian 16 #p B3LYP/6-31G* opt
@<TRIPOS>ATOM
1		C		0.6830		4.8571		0.7503		C.3		1		UNL1		-0.4425
2		C		1.3734		3.4998		0.5872		C.3		1		UNL1		-0.2546
3		C		0.5629		2.5320		-0.3009		C.3		1		UNL1		-0.3402
4		C		1.2545		1.2054		-0.5090		C.ar		1		UNL1		0.0012
5		C		1.0027		0.0726		0.2057		C.ar		1		UNL1		0.3271
6		C		-0.0550		0.0350		1.3044		C.3		1		UNL1		-0.4581
7		C		-1.5284		0.2279		0.9377		C.ar		1		UNL1		0.1288
8		C		-2.2546		1.1149		1.7130		C.ar		1		UNL1		-0.2083
9		C		-3.6421		1.3142		1.5357		C.ar		1		UNL1		-0.1278
10		C		-4.3153		0.6138		0.5658		C.ar		1		UNL1		-0.1913
11		C		-3.6250		-0.3107		-0.2612		C.ar		1		UNL1		0.1429
12		C		-4.3174		-1.0442		-1.2619		C.ar		1		UNL1		-0.1945
13		C		-3.6629		-1.9485		-2.0650		C.ar		1		UNL1		-0.1311
14		C		-2.2743		-2.1525		-1.8993		C.ar		1		UNL1		-0.1428
15		C		-1.5729		-1.4556		-0.9398		C.ar		1		UNL1		-0.1944
16		C		-2.2119		-0.5153		-0.0836		C.ar		1		UNL1		0.0766
17		N		1.7471		-1.1068		-0.0149		N.ar		1		UNL1		-0.5739
18		C		1.6032		-2.2885		0.8178		C.3		1		UNL1		0.0716
19		O		2.1279		-2.0107		2.1000		O.3		1		UNL1		-0.4575
20		C		2.1546		-3.1633		2.9260		C.3		1		UNL1		-0.2068
21		C		2.7944		-1.1710		-0.9536		C.ar		1		UNL1		0.7888
22		O		3.4752		-2.1679		-1.1365		O.2		1		UNL1		-0.5162
23		N		2.9774		-0.0127		-1.6730		N.ar		1		UNL1		-0.7000
24		C		2.3076		1.2072		-1.5261		C.ar		1		UNL1		0.6083
25		O		2.6231		2.1640		-2.2212		O.2		1		UNL1		-0.5130
26		H		-0.3072		4.7498		1.2110		H		1		UNL1		0.1368
27		H		1.2739		5.5300		1.3820		H		1		UNL1		0.1434
28		H		0.5448		5.3469		-0.2210		H		1		UNL1		0.1509
29		H		2.3643		3.6397		0.1401		H		1		UNL1		0.1600
30		H		1.5358		3.0446		1.5745		H		1		UNL1		0.1251
31		H		0.4314		2.9974		-1.2842		H		1		UNL1		0.1672
32		H		-0.4346		2.3907		0.1216		H		1		UNL1		0.1497
33		H		0.0517		-0.8786		1.8905		H		1		UNL1		0.1968
34		H		0.2057		0.8352		2.0051		H		1		UNL1		0.1845
35		H		-1.7428		1.6779		2.4901		H		1		UNL1		0.1291
36		H		-4.1659		2.0239		2.1700		H		1		UNL1		0.1346
37		H		-5.3829		0.7550		0.4161		H		1		UNL1		0.1335
38		H		-5.3851		-0.8744		-1.3799		H		1		UNL1		0.1332
39		H		-4.2061		-2.5020		-2.8259		H		1		UNL1		0.1345
40		H		-1.7532		-2.8608		-2.5377		H		1		UNL1		0.1350
41		H		-0.5073		-1.6214		-0.8542		H		1		UNL1		0.1411
42		H		2.1640		-3.0861		0.3249		H		1		UNL1		0.1981
43		H		0.5456		-2.5777		0.8835		H		1		UNL1		0.1421
44		H		1.1446		-3.5687		3.0956		H		1		UNL1		0.1375
45		H		2.7823		-3.9551		2.4911		H		1		UNL1		0.1500
46		H		2.5790		-2.8544		3.8834		H		1		UNL1		0.1710
47		H		3.7234		-0.0400		-2.3589		H		1		UNL1		0.3536
@<TRIPOS>BOND
1		39		13		1
2		40		14		1
3		47		23		1
4		25		24		2
5		13		14		ar
6		13		12		ar
7		14		15		ar
8		23		24		ar
9		23		21		ar
10		24		4		ar
11		38		12		1
12		31		3		1
13		12		11		ar
14		22		21		2
15		21		17		ar
16		15		41		1
17		15		16		ar
18		4		3		1
19		4		5		ar
20		3		32		1
21		3		2		1
22		11		16		ar
23		11		10		ar
24		28		1		1
25		16		7		ar
26		17		5		ar
27		17		18		1
28		29		2		1
29		5		6		1
30		42		18		1
31		37		10		1
32		10		9		ar
33		2		1		1
34		2		30		1
35		1		26		1
36		1		27		1
37		18		43		1
38		18		19		1
39		7		6		1
40		7		8		ar
41		6		33		1
42		6		34		1
43		9		8		ar
44		9		36		1
45		8		35		1
46		19		20		1
47		45		20		1
48		20		44		1
49		20		46		1

