@<TRIPOS>MOLECULE
MG2003-CJMC-255-8
 47 49 0 0 0
SMALL
MULLIKEN_CHARGES
****
Gaussian 16 #p B3LYP/6-31G* opt
@<TRIPOS>ATOM
1		C		2.7492		-1.6026		2.8522		C.3		1		UNL1		-0.2163
2		O		2.9060		-2.3688		1.6705		O.3		1		UNL1		-0.4367
3		C		1.8364		-2.3266		0.7677		C.3		1		UNL1		0.0735
4		N		1.7562		-1.0632		0.0034		N.ar		1		UNL1		-0.5834
5		C		1.0108		0.0817		0.3713		C.ar		1		UNL1		0.3124
6		C		-0.0393		-0.0856		1.4731		C.3		1		UNL1		-0.4664
7		C		-1.5120		0.1301		1.1163		C.ar		1		UNL1		0.1395
8		C		-2.2377		1.0148		1.8930		C.ar		1		UNL1		-0.2065
9		C		-3.6196		1.2345		1.6943		C.ar		1		UNL1		-0.1298
10		C		-4.2852		0.5552		0.7043		C.ar		1		UNL1		-0.1900
11		C		-3.5962		-0.3768		-0.1158		C.ar		1		UNL1		0.1421
12		C		-4.2815		-1.0989		-1.1293		C.ar		1		UNL1		-0.1943
13		C		-3.6272		-2.0184		-1.9155		C.ar		1		UNL1		-0.1309
14		C		-2.2477		-2.2533		-1.7167		C.ar		1		UNL1		-0.1419
15		C		-1.5525		-1.5660		-0.7460		C.ar		1		UNL1		-0.1965
16		C		-2.1906		-0.6048		0.0866		C.ar		1		UNL1		0.0756
17		C		1.2137		1.2898		-0.2382		C.ar		1		UNL1		0.0097
18		C		0.4947		2.5746		0.1587		C.3		1		UNL1		-0.1419
19		C		1.4844		3.6464		0.6634		C.3		1		UNL1		-0.4543
20		C		-0.3980		3.1200		-0.9742		C.3		1		UNL1		-0.4545
21		C		2.1750		1.3880		-1.3423		C.ar		1		UNL1		0.6054
22		O		2.4563		2.4008		-1.9723		O.2		1		UNL1		-0.5115
23		N		2.7847		0.1807		-1.6923		N.ar		1		UNL1		-0.6968
24		C		2.6556		-1.0448		-1.0830		C.ar		1		UNL1		0.7937
25		O		3.2687		-2.0285		-1.4619		O.2		1		UNL1		-0.5097
26		H		1.8568		-1.9079		3.4200		H		1		UNL1		0.1349
27		H		2.6898		-0.5251		2.6432		H		1		UNL1		0.1469
28		H		3.6357		-1.7909		3.4619		H		1		UNL1		0.1748
29		H		0.8809		-2.5211		1.2599		H		1		UNL1		0.1484
30		H		2.0385		-3.1058		0.0379		H		1		UNL1		0.2079
31		H		0.2084		0.6215		2.2712		H		1		UNL1		0.1793
32		H		0.0497		-1.0682		1.9354		H		1		UNL1		0.1708
33		H		-1.7322		1.5631		2.6847		H		1		UNL1		0.1280
34		H		-4.1445		1.9441		2.3276		H		1		UNL1		0.1355
35		H		-5.3473		0.7155		0.5366		H		1		UNL1		0.1349
36		H		-5.3433		-0.9104		-1.2694		H		1		UNL1		0.1341
37		H		-4.1649		-2.5639		-2.6859		H		1		UNL1		0.1357
38		H		-1.7296		-2.9801		-2.3365		H		1		UNL1		0.1374
39		H		-0.4945		-1.7607		-0.6264		H		1		UNL1		0.1444
40		H		-0.1690		2.3424		0.9925		H		1		UNL1		0.1277
41		H		0.9308		4.5245		1.0169		H		1		UNL1		0.1372
42		H		2.1621		3.9623		-0.1323		H		1		UNL1		0.1865
43		H		2.0852		3.2690		1.5000		H		1		UNL1		0.1287
44		H		-1.1404		2.3753		-1.2811		H		1		UNL1		0.1472
45		H		0.2017		3.3960		-1.8446		H		1		UNL1		0.1801
46		H		-0.9369		4.0102		-0.6283		H		1		UNL1		0.1354
47		H		3.4347		0.2152		-2.4698		H		1		UNL1		0.3537
@<TRIPOS>BOND
1		37		13		1
2		47		23		1
3		38		14		1
4		22		21		2
5		13		14		ar
6		13		12		ar
7		45		20		1
8		14		15		ar
9		23		21		ar
10		23		24		ar
11		25		24		2
12		21		17		ar
13		44		20		1
14		36		12		1
15		12		11		ar
16		24		4		ar
17		20		46		1
18		20		18		1
19		15		39		1
20		15		16		ar
21		17		18		1
22		17		5		ar
23		42		19		1
24		11		16		ar
25		11		10		ar
26		4		5		ar
27		4		3		1
28		30		3		1
29		16		7		ar
30		18		19		1
31		18		40		1
32		5		6		1
33		35		10		1
34		19		41		1
35		19		43		1
36		10		9		ar
37		3		29		1
38		3		2		1
39		7		6		1
40		7		8		ar
41		6		32		1
42		6		31		1
43		2		1		1
44		9		8		ar
45		9		34		1
46		8		33		1
47		27		1		1
48		1		26		1
49		1		28		1

