@<TRIPOS>MOLECULE
MG2003-CJMC-255-2
 48 50 0 0 0
SMALL
MULLIKEN_CHARGES
****
Gaussian 16 #p B3LYP/6-31G* opt
@<TRIPOS>ATOM
1		C		0.2374		4.1471		-0.5783		C.3		1		UNL1		-0.4495
2		C		-0.4974		3.1415		-1.4838		C.3		1		UNL1		-0.3284
3		C		-1.2847		2.1035		-0.7150		C.ar		1		UNL1		-0.0023
4		C		-0.8717		0.8339		-0.4303		C.ar		1		UNL1		0.3151
5		C		0.4643		0.2834		-0.8809		C.3		1		UNL1		-0.4695
6		C		1.5912		0.3328		0.1495		C.ar		1		UNL1		0.1125
7		C		1.4364		0.9473		1.3762		C.ar		1		UNL1		-0.2002
8		C		2.4912		0.9988		2.3200		C.ar		1		UNL1		-0.1367
9		C		3.7077		0.4337		2.0292		C.ar		1		UNL1		-0.1876
10		C		3.9223		-0.2085		0.7799		C.ar		1		UNL1		0.1369
11		C		5.1751		-0.7954		0.4594		C.ar		1		UNL1		-0.1933
12		C		5.3811		-1.4144		-0.7524		C.ar		1		UNL1		-0.1311
13		C		4.3333		-1.4726		-1.6996		C.ar		1		UNL1		-0.1325
14		C		3.1050		-0.9140		-1.4193		C.ar		1		UNL1		-0.1941
15		C		2.8550		-0.2661		-0.1781		C.ar		1		UNL1		0.0758
16		N		-1.6789		-0.0504		0.3089		N.ar		1		UNL1		-0.5564
17		C		-1.2499		-1.4353		0.5926		C.3		1		UNL1		0.0522
18		O		-1.2882		-2.2783		-0.5278		O.3		1		UNL1		-0.4522
19		C		-2.5800		-2.6511		-1.0161		C.3		1		UNL1		-0.0398
20		C		-3.3870		-3.5394		-0.0817		C.3		1		UNL1		-0.0709
21		O		-2.6556		-4.7356		0.1474		O.3		1		UNL1		-0.6108
22		C		-2.9505		0.3042		0.7716		C.ar		1		UNL1		0.7790
23		O		-3.6874		-0.4578		1.3845		O.2		1		UNL1		-0.5283
24		N		-3.3158		1.6010		0.4846		N.ar		1		UNL1		-0.6988
25		C		-2.5929		2.5593		-0.2360		C.ar		1		UNL1		0.6026
26		O		-3.0696		3.6715		-0.4199		O.2		1		UNL1		-0.5113
27		H		-0.4747		4.6658		0.0708		H		1		UNL1		0.1685
28		H		0.7527		4.9007		-1.1848		H		1		UNL1		0.1455
29		H		0.9828		3.6475		0.0494		H		1		UNL1		0.1495
30		H		0.2198		2.6680		-2.1608		H		1		UNL1		0.1400
31		H		-1.2084		3.6929		-2.1079		H		1		UNL1		0.1714
32		H		0.3158		-0.7482		-1.2160		H		1		UNL1		0.2108
33		H		0.7792		0.8391		-1.7686		H		1		UNL1		0.1829
34		H		0.4879		1.4111		1.6296		H		1		UNL1		0.1367
35		H		2.3265		1.4914		3.2743		H		1		UNL1		0.1356
36		H		4.5234		0.4698		2.7472		H		1		UNL1		0.1329
37		H		5.9743		-0.7453		1.1952		H		1		UNL1		0.1332
38		H		6.3450		-1.8591		-0.9838		H		1		UNL1		0.1339
39		H		4.4977		-1.9632		-2.6551		H		1		UNL1		0.1341
40		H		2.3172		-0.9747		-2.1626		H		1		UNL1		0.1358
41		H		-1.8864		-1.7830		1.4051		H		1		UNL1		0.1955
42		H		-0.2116		-1.4186		0.9198		H		1		UNL1		0.1814
43		H		-2.3710		-3.1956		-1.9411		H		1		UNL1		0.1623
44		H		-3.1749		-1.7608		-1.2648		H		1		UNL1		0.1375
45		H		-4.3511		-3.7366		-0.5818		H		1		UNL1		0.1229
46		H		-3.6127		-3.0066		0.8520		H		1		UNL1		0.1613
47		H		-3.1457		-5.2617		0.7965		H		1		UNL1		0.3949
48		H		-4.2316		1.8811		0.8174		H		1		UNL1		0.3531
@<TRIPOS>BOND
1		39		13		1
2		40		14		1
3		30		2		1
4		31		2		1
5		43		19		1
6		33		5		1
7		13		14		ar
8		13		12		ar
9		2		3		1
10		2		1		1
11		14		15		ar
12		44		19		1
13		32		5		1
14		28		1		1
15		19		18		1
16		19		20		1
17		38		12		1
18		5		4		1
19		5		6		1
20		12		11		ar
21		3		4		ar
22		3		25		ar
23		45		20		1
24		1		29		1
25		1		27		1
26		18		17		1
27		4		16		ar
28		26		25		2
29		25		24		ar
30		15		6		ar
31		15		10		ar
32		20		21		1
33		20		46		1
34		21		47		1
35		6		7		ar
36		16		17		1
37		16		22		ar
38		11		10		ar
39		11		37		1
40		24		22		ar
41		24		48		1
42		17		42		1
43		17		41		1
44		22		23		2
45		10		9		ar
46		7		34		1
47		7		8		ar
48		9		8		ar
49		9		36		1
50		8		35		1

