@<TRIPOS>MOLECULE
MG2003-CJMC-255-14
 54 57 0 0 0
SMALL
MULLIKEN_CHARGES
****
Gaussian 16 #p B3LYP/6-31G* opt
@<TRIPOS>ATOM
1		C		-2.0488		2.5219		3.3149		C.3		1		UNL1		-0.4452
2		C		-2.6971		2.2050		1.9555		C.3		1		UNL1		-0.3333
3		C		-1.7651		2.4208		0.7842		C.ar		1		UNL1		-0.0092
4		C		-1.0229		1.4439		0.1913		C.ar		1		UNL1		0.3285
5		C		-1.0269		0.0118		0.6807		C.3		1		UNL1		-0.4685
6		C		-1.9563		-0.9471		-0.0594		C.ar		1		UNL1		0.1099
7		C		-2.9129		-0.4917		-0.9447		C.ar		1		UNL1		-0.1982
8		C		-3.7851		-1.3810		-1.6179		C.ar		1		UNL1		-0.1353
9		C		-3.6983		-2.7335		-1.3987		C.ar		1		UNL1		-0.1882
10		C		-2.7371		-3.2552		-0.4913		C.ar		1		UNL1		0.1364
11		C		-2.6373		-4.6506		-0.2464		C.ar		1		UNL1		-0.1938
12		C		-1.7109		-5.1528		0.6390		C.ar		1		UNL1		-0.1319
13		C		-0.8404		-4.2721		1.3208		C.ar		1		UNL1		-0.1340
14		C		-0.9090		-2.9126		1.1036		C.ar		1		UNL1		-0.2008
15		C		-1.8511		-2.3571		0.1938		C.ar		1		UNL1		0.0734
16		N		-0.1978		1.7204		-0.9119		N.ar		1		UNL1		-0.5626
17		C		0.6190		0.6939		-1.5315		C.3		1		UNL1		0.0831
18		O		1.7524		0.4572		-0.7161		O.3		1		UNL1		-0.4730
19		C		2.6859		-0.4317		-1.3283		C.3		1		UNL1		-0.0973
20		C		3.9115		-0.5463		-0.4550		C.ar		1		UNL1		0.1350
21		C		4.4930		-1.7933		-0.2062		C.ar		1		UNL1		-0.1840
22		C		5.6530		-1.8953		0.5648		C.ar		1		UNL1		-0.1290
23		C		6.2355		-0.7481		1.1037		C.ar		1		UNL1		-0.1268
24		C		5.6545		0.5005		0.8661		C.ar		1		UNL1		-0.1325
25		C		4.5023		0.6020		0.0883		C.ar		1		UNL1		-0.1594
26		C		-0.0159		3.0210		-1.4089		C.ar		1		UNL1		0.7893
27		O		0.7311		3.2894		-2.3356		O.2		1		UNL1		-0.5149
28		N		-0.7751		3.9762		-0.7671		N.ar		1		UNL1		-0.7026
29		C		-1.6557		3.8014		0.3077		C.ar		1		UNL1		0.6053
30		O		-2.2550		4.7628		0.7711		O.2		1		UNL1		-0.5122
31		H		-2.7707		2.3851		4.1280		H		1		UNL1		0.1468
32		H		-1.1878		1.8720		3.5122		H		1		UNL1		0.1402
33		H		-1.7039		3.5601		3.3383		H		1		UNL1		0.1714
34		H		-3.5538		2.8726		1.8168		H		1		UNL1		0.1732
35		H		-3.0906		1.1837		1.9504		H		1		UNL1		0.1449
36		H		0.0025		-0.3572		0.6422		H		1		UNL1		0.2036
37		H		-1.2932		0.0185		1.7423		H		1		UNL1		0.1889
38		H		-3.0067		0.5741		-1.1307		H		1		UNL1		0.1373
39		H		-4.5227		-0.9813		-2.3081		H		1		UNL1		0.1365
40		H		-4.3637		-3.4236		-1.9116		H		1		UNL1		0.1333
41		H		-3.3138		-5.3189		-0.7739		H		1		UNL1		0.1337
42		H		-1.6473		-6.2227		0.8173		H		1		UNL1		0.1341
43		H		-0.1123		-4.6702		2.0224		H		1		UNL1		0.1344
44		H		-0.2323		-2.2590		1.6440		H		1		UNL1		0.1388
45		H		0.0252		-0.2195		-1.6521		H		1		UNL1		0.1565
46		H		0.9165		1.0721		-2.5129		H		1		UNL1		0.1898
47		H		2.9555		-0.0398		-2.3237		H		1		UNL1		0.1505
48		H		2.2308		-1.4231		-1.4818		H		1		UNL1		0.1362
49		H		4.0361		-2.6914		-0.6165		H		1		UNL1		0.1253
50		H		6.0947		-2.8710		0.7497		H		1		UNL1		0.1304
51		H		7.1353		-0.8251		1.7083		H		1		UNL1		0.1309
52		H		6.1020		1.3975		1.2861		H		1		UNL1		0.1335
53		H		4.0450		1.5701		-0.0928		H		1		UNL1		0.1480
54		H		-0.6660		4.9230		-1.1128		H		1		UNL1		0.3536
@<TRIPOS>BOND
1		46		17		1
2		27		26		2
3		47		19		1
4		39		8		1
5		40		9		1
6		45		17		1
7		8		9		ar
8		8		7		ar
9		17		16		1
10		17		18		1
11		48		19		1
12		26		16		ar
13		26		28		ar
14		9		10		ar
15		19		18		1
16		19		20		1
17		38		7		1
18		54		28		1
19		7		6		ar
20		16		4		ar
21		41		11		1
22		28		29		ar
23		49		21		1
24		10		11		ar
25		10		15		ar
26		20		21		ar
27		20		25		ar
28		11		12		ar
29		21		22		ar
30		53		25		1
31		6		15		ar
32		6		5		1
33		25		24		ar
34		4		5		1
35		4		3		ar
36		15		14		ar
37		29		30		2
38		29		3		ar
39		22		50		1
40		22		23		ar
41		12		42		1
42		12		13		ar
43		36		5		1
44		5		37		1
45		3		2		1
46		24		23		ar
47		24		52		1
48		14		13		ar
49		14		44		1
50		23		51		1
51		13		43		1
52		34		2		1
53		35		2		1
54		2		1		1
55		1		33		1
56		1		32		1
57		1		31		1

