@<TRIPOS>MOLECULE
MXD-2012-EJMC-504-3-13a
 52 54 0 0 0
SMALL
MULLIKEN_CHARGES
****
Gaussian 16 #p B3LYP/6-31G* opt
@<TRIPOS>ATOM
1		C		1.4695		-0.8019		-1.3873		C.3		1		UNL1		-0.5676
2		C		2.6893		-0.5428		-0.5333		C.ar		1		UNL1		0.1566
3		C		3.9670		-0.6809		-1.0746		C.ar		1		UNL1		-0.2288
4		C		5.1030		-0.4280		-0.3041		C.ar		1		UNL1		-0.1419
5		S		6.7312		-0.6458		-1.0307		S.O2		1		UNL1		1.1635
6		N		7.2253		-2.2217		-0.6848		N.3		1		UNL1		-0.7853
7		O		7.6558		0.2189		-0.3001		O.2		1		UNL1		-0.5251
8		O		6.5706		-0.6000		-2.4834		O.2		1		UNL1		-0.5275
9		C		4.9821		-0.0172		1.0229		C.ar		1		UNL1		-0.1727
10		C		3.7185		0.1218		1.5885		C.ar		1		UNL1		-0.1548
11		C		2.5737		-0.1433		0.8200		C.ar		1		UNL1		0.2942
12		N		1.2756		-0.0159		1.3518		N.am		1		UNL1		-0.7273
13		C		0.8883		0.4023		2.5976		C.2		1		UNL1		0.5820
14		O		1.6208		0.7294		3.5186		O.2		1		UNL1		-0.4905
15		C		-0.6324		0.3884		2.8145		C.3		1		UNL1		-0.1431
16		O		-1.4053		0.2281		1.6260		O.3		1		UNL1		-0.5731
17		C		-1.7932		1.3641		0.9262		C.ar		1		UNL1		0.3085
18		C		-1.1445		2.5911		1.0036		C.ar		1		UNL1		-0.1882
19		C		-1.5956		3.6709		0.2389		C.ar		1		UNL1		-0.1416
20		C		-2.6907		3.4895		-0.5980		C.ar		1		UNL1		-0.0780
21		CL		-3.2632		4.8383		-1.5686		Cl		1		UNL1		-0.0141
22		C		-3.3556		2.2671		-0.6930		C.ar		1		UNL1		-0.1740
23		C		-2.9103		1.1871		0.0778		C.ar		1		UNL1		0.3257
24		N		-3.4993		-0.0853		0.0737		N.am		1		UNL1		-0.7575
25		C		-4.5981		-0.5189		-0.6422		C.2		1		UNL1		0.5813
26		O		-5.2397		0.2042		-1.3954		O.2		1		UNL1		-0.5047
27		C		-4.9714		-1.9576		-0.4217		C.ar		1		UNL1		0.0617
28		C		-4.0769		-2.9351		0.0395		C.ar		1		UNL1		-0.1851
29		C		-4.4996		-4.2533		0.2087		C.ar		1		UNL1		-0.1341
30		C		-5.8189		-4.6074		-0.0789		C.ar		1		UNL1		-0.1187
31		C		-6.7116		-3.6416		-0.5504		C.ar		1		UNL1		-0.1353
32		C		-6.2886		-2.3268		-0.7277		C.ar		1		UNL1		-0.1501
33		H		0.8222		0.0824		-1.4608		H		1		UNL1		0.1802
34		H		0.8582		-1.6281		-0.9977		H		1		UNL1		0.1629
35		H		1.7628		-1.0712		-2.4050		H		1		UNL1		0.1823
36		H		4.0832		-0.9629		-2.1165		H		1		UNL1		0.1748
37		H		6.6288		-2.9207		-1.1205		H		1		UNL1		0.3462
38		H		7.3461		-2.3809		0.3123		H		1		UNL1		0.3479
39		H		5.8685		0.2147		1.6043		H		1		UNL1		0.1789
40		H		3.6037		0.4440		2.6139		H		1		UNL1		0.1991
41		H		0.5064		-0.2387		0.7330		H		1		UNL1		0.3641
42		H		-0.9127		1.2974		3.3547		H		1		UNL1		0.1948
43		H		-0.8709		-0.4721		3.4478		H		1		UNL1		0.1983
44		H		-0.2804		2.7216		1.6459		H		1		UNL1		0.1615
45		H		-1.0941		4.6301		0.2941		H		1		UNL1		0.1626
46		H		-4.2115		2.1402		-1.3394		H		1		UNL1		0.2158
47		H		-3.1106		-0.7155		0.7613		H		1		UNL1		0.3554
48		H		-3.0356		-2.6889		0.2323		H		1		UNL1		0.1280
49		H		-3.7962		-5.0047		0.5567		H		1		UNL1		0.1382
50		H		-6.1476		-5.6343		0.0559		H		1		UNL1		0.1417
51		H		-7.7371		-3.9149		-0.7822		H		1		UNL1		0.1441
52		H		-6.9629		-1.5651		-1.1046		H		1		UNL1		0.1690
@<TRIPOS>BOND
1		8		5		2
2		35		1		1
3		36		3		1
4		21		20		1
5		33		1		1
6		26		25		2
7		1		34		1
8		1		2		1
9		46		22		1
10		37		6		1
11		52		32		1
12		3		2		ar
13		3		4		ar
14		5		6		1
15		5		4		1
16		5		7		2
17		51		31		1
18		32		31		ar
19		32		27		ar
20		22		20		ar
21		22		23		ar
22		6		38		1
23		25		27		1
24		25		24		1
25		20		19		ar
26		31		30		ar
27		2		11		ar
28		27		28		ar
29		4		9		ar
30		30		50		1
31		30		29		ar
32		28		29		ar
33		28		48		1
34		24		23		1
35		24		47		1
36		23		17		ar
37		29		49		1
38		19		45		1
39		19		18		ar
40		41		12		1
41		11		12		1
42		11		10		ar
43		17		18		ar
44		17		16		1
45		18		44		1
46		9		10		ar
47		9		39		1
48		12		13		1
49		10		40		1
50		16		15		1
51		13		15		1
52		13		14		2
53		15		42		1
54		15		43		1

