@<TRIPOS>MOLECULE
MXD-2011-CMC-2225-9q
 38 40 0 0 0
SMALL
MULLIKEN_CHARGES
****
Gaussian 16 #p B3LYP/6-31G* opt
@<TRIPOS>ATOM
1		N		8.3983		-0.7987		0.1876		N.1		1		UNL1		-0.4876
2		C		7.2413		-0.6689		0.1700		C.1		1		UNL1		0.2257
3		C		5.8195		-0.5122		0.1487		C.ar		1		UNL1		0.1299
4		C		4.9765		-1.6338		0.2454		C.ar		1		UNL1		-0.1408
5		C		3.6013		-1.4748		0.2242		C.ar		1		UNL1		-0.2059
6		C		3.0190		-0.1952		0.1062		C.ar		1		UNL1		0.3847
7		N		1.6274		-0.1389		0.0946		N.pl3		1		UNL1		-0.7695
8		C		0.7364		0.9137		-0.0037		C.ar		1		UNL1		0.6975
9		N		1.1834		2.1690		-0.1133		N.ar		1		UNL1		-0.4829
10		C		0.2268		3.1072		-0.2019		C.ar		1		UNL1		0.0654
11		C		-1.1277		2.8258		-0.1836		C.ar		1		UNL1		-0.1844
12		C		-1.4831		1.4686		-0.0632		C.ar		1		UNL1		0.3329
13		C		-2.8980		1.0297		-0.0154		C.2		1		UNL1		0.2090
14		N		-3.7839		1.9703		0.0520		N.2		1		UNL1		-0.3017
15		N		-5.1008		1.6917		0.0435		N.pl3		1		UNL1		-0.5358
16		C		-3.1974		-0.4331		-0.0589		C.ar		1		UNL1		-0.0806
17		C		-3.8484		-1.1114		0.9743		C.ar		1		UNL1		0.3329
18		F		-4.2593		-0.3891		2.0462		F		1		UNL1		-0.2949
19		C		-4.1196		-2.4736		0.9542		C.ar		1		UNL1		-0.1988
20		C		-3.7173		-3.2116		-0.1587		C.ar		1		UNL1		-0.1279
21		C		-3.0674		-2.5886		-1.2251		C.ar		1		UNL1		-0.2037
22		C		-2.8241		-1.2233		-1.1533		C.ar		1		UNL1		0.3810
23		F		-2.2114		-0.6241		-2.1886		F		1		UNL1		-0.2810
24		N		-0.5509		0.5157		0.0279		N.ar		1		UNL1		-0.5867
25		C		3.8615		0.9288		0.0092		C.ar		1		UNL1		-0.1604
26		C		5.2404		0.7624		0.0311		C.ar		1		UNL1		-0.1537
27		H		5.4078		-2.6255		0.3368		H		1		UNL1		0.1551
28		H		2.9597		-2.3498		0.3000		H		1		UNL1		0.1336
29		H		1.1446		-1.0252		0.1702		H		1		UNL1		0.3442
30		H		0.5803		4.1326		-0.2943		H		1		UNL1		0.1511
31		H		-1.8820		3.5971		-0.2589		H		1		UNL1		0.1632
32		H		-5.3972		0.7953		0.4222		H		1		UNL1		0.3325
33		H		-5.6397		2.4726		0.3949		H		1		UNL1		0.3476
34		H		-4.6282		-2.9289		1.7967		H		1		UNL1		0.1550
35		H		-3.9168		-4.2781		-0.1982		H		1		UNL1		0.1532
36		H		-2.7520		-3.1374		-2.1056		H		1		UNL1		0.1557
37		H		3.4228		1.9119		-0.0817		H		1		UNL1		0.1895
38		H		5.8833		1.6338		-0.0443		H		1		UNL1		0.1563
@<TRIPOS>BOND
1		23		22		1
2		36		21		1
3		21		22		ar
4		21		20		ar
5		22		16		ar
6		30		10		1
7		31		11		1
8		10		11		ar
9		10		9		ar
10		35		20		1
11		11		12		ar
12		20		19		ar
13		9		8		ar
14		37		25		1
15		12		13		1
16		12		24		ar
17		16		13		1
18		16		17		ar
19		38		26		1
20		13		14		2
21		8		24		ar
22		8		7		1
23		25		26		ar
24		25		6		ar
25		26		3		ar
26		15		14		1
27		15		33		1
28		15		32		1
29		7		6		1
30		7		29		1
31		6		5		ar
32		3		2		1
33		3		4		ar
34		2		1		3
35		5		4		ar
36		5		28		1
37		4		27		1
38		19		17		ar
39		19		34		1
40		17		18		1

