@<TRIPOS>MOLECULE
MXD-2011-CMC-2225-9m
 42 44 0 0 0
SMALL
MULLIKEN_CHARGES
****
Gaussian 16 #p B3LYP/6-31G* opt
@<TRIPOS>ATOM
1		C		8.1010		-1.1950		0.3709		C.3		1		UNL1		-0.2191
2		O		7.0562		-1.3585		-0.5775		O.3		1		UNL1		-0.5025
3		C		5.8685		-0.7344		-0.3474		C.ar		1		UNL1		0.3822
4		C		5.5933		0.0762		0.7607		C.ar		1		UNL1		-0.1998
5		C		4.3335		0.6662		0.8891		C.ar		1		UNL1		-0.1734
6		C		3.3275		0.4647		-0.0656		C.ar		1		UNL1		0.0233
7		C		1.9834		1.1056		0.0781		C.2		1		UNL1		0.1605
8		N		1.7894		2.3863		0.1290		N.2		1		UNL1		-0.2692
9		N		2.8457		3.2280		0.0885		N.pl3		1		UNL1		-0.5431
10		C		0.7718		0.2515		0.1801		C.ar		1		UNL1		0.3179
11		C		0.8687		-1.1226		0.4743		C.ar		1		UNL1		-0.2141
12		C		-0.3219		-1.8300		0.5626		C.ar		1		UNL1		0.0677
13		N		-1.5269		-1.2758		0.3860		N.ar		1		UNL1		-0.4804
14		C		-1.5065		0.0387		0.1145		C.ar		1		UNL1		0.6899
15		N		-2.6931		0.7220		-0.0832		N.pl3		1		UNL1		-0.7683
16		C		-4.0265		0.3225		-0.0649		C.ar		1		UNL1		0.3848
17		C		-4.9917		1.3217		-0.3124		C.ar		1		UNL1		-0.2059
18		C		-6.3435		1.0231		-0.3166		C.ar		1		UNL1		-0.1411
19		C		-6.7784		-0.2920		-0.0720		C.ar		1		UNL1		0.1293
20		C		-8.1734		-0.6082		-0.0751		C.1		1		UNL1		0.2250
21		N		-9.3093		-0.8642		-0.0782		N.1		1		UNL1		-0.4889
22		C		-5.8182		-1.2875		0.1749		C.ar		1		UNL1		-0.1538
23		C		-4.4605		-0.9947		0.1806		C.ar		1		UNL1		-0.1611
24		N		-0.4250		0.8244		-0.0046		N.ar		1		UNL1		-0.5456
25		C		3.6260		-0.3529		-1.1730		C.ar		1		UNL1		-0.1613
26		C		4.8734		-0.9432		-1.3160		C.ar		1		UNL1		-0.1762
27		H		7.8118		-1.5777		1.3583		H		1		UNL1		0.1567
28		H		8.9423		-1.7766		-0.0095		H		1		UNL1		0.1761
29		H		8.3996		-0.1427		0.4637		H		1		UNL1		0.1551
30		H		6.3414		0.2509		1.5254		H		1		UNL1		0.1398
31		H		4.1299		1.2911		1.7543		H		1		UNL1		0.1565
32		H		3.6995		2.8877		-0.3563		H		1		UNL1		0.3191
33		H		2.5608		4.1509		-0.2140		H		1		UNL1		0.3430
34		H		1.8229		-1.6067		0.6364		H		1		UNL1		0.1550
35		H		-0.3191		-2.8949		0.7896		H		1		UNL1		0.1494
36		H		-2.5216		1.7017		-0.2721		H		1		UNL1		0.3473
37		H		-4.6679		2.3424		-0.5027		H		1		UNL1		0.1351
38		H		-7.0720		1.8043		-0.5088		H		1		UNL1		0.1546
39		H		-6.1443		-2.3053		0.3650		H		1		UNL1		0.1549
40		H		-3.7279		-1.7654		0.3718		H		1		UNL1		0.1877
41		H		2.8654		-0.5258		-1.9297		H		1		UNL1		0.1457
42		H		5.1053		-1.5718		-2.1700		H		1		UNL1		0.1472
@<TRIPOS>BOND
1		42		26		1
2		41		25		1
3		26		25		ar
4		26		3		ar
5		25		6		ar
6		2		3		1
7		2		1		1
8		38		18		1
9		37		17		1
10		32		9		1
11		3		4		ar
12		18		17		ar
13		18		19		ar
14		17		16		ar
15		36		15		1
16		33		9		1
17		15		16		1
18		15		14		1
19		21		20		3
20		20		19		1
21		19		22		ar
22		6		7		1
23		6		5		ar
24		16		23		ar
25		28		1		1
26		24		14		ar
27		24		10		ar
28		7		8		2
29		7		10		1
30		9		8		1
31		14		13		ar
32		22		23		ar
33		22		39		1
34		10		11		ar
35		23		40		1
36		1		29		1
37		1		27		1
38		13		12		ar
39		11		12		ar
40		11		34		1
41		12		35		1
42		4		5		ar
43		4		30		1
44		5		31		1

