@<TRIPOS>MOLECULE
MXD-2011-CMC-2225-9d
 41 43 0 0 0
SMALL
MULLIKEN_CHARGES
****
Gaussian 16 #p B3LYP/6-31G* opt
@<TRIPOS>ATOM
1		C		4.6961		4.1446		0.0264		C.3		1		UNL1		-0.5310
2		C		4.2072		2.7154		0.0121		C.ar		1		UNL1		0.1831
3		C		4.5535		1.8405		-1.0238		C.ar		1		UNL1		-0.1886
4		C		4.1233		0.5131		-1.0217		C.ar		1		UNL1		-0.1646
5		C		3.3204		0.0203		0.0178		C.ar		1		UNL1		0.0648
6		C		2.8771		-1.4066		0.0243		C.2		1		UNL1		0.1652
7		N		3.6840		-2.4225		0.0196		N.2		1		UNL1		-0.3056
8		N		5.0205		-2.2331		-0.0351		N.pl3		1		UNL1		-0.5401
9		C		1.4324		-1.7440		0.0321		C.ar		1		UNL1		0.3172
10		C		0.9791		-3.0788		0.0616		C.ar		1		UNL1		-0.1839
11		C		-0.3909		-3.2666		0.0605		C.ar		1		UNL1		0.0636
12		N		-1.2814		-2.2605		0.0345		N.ar		1		UNL1		-0.4834
13		C		-0.7466		-1.0359		0.0083		C.ar		1		UNL1		0.6925
14		N		-1.5604		0.0822		-0.0228		N.pl3		1		UNL1		-0.7691
15		C		-2.9440		0.2383		-0.0331		C.ar		1		UNL1		0.3843
16		C		-3.8648		-0.8267		0.0002		C.ar		1		UNL1		-0.1609
17		C		-5.2282		-0.5616		-0.0113		C.ar		1		UNL1		-0.1538
18		C		-5.7149		0.7556		-0.0559		C.ar		1		UNL1		0.1297
19		C		-7.1218		1.0140		-0.0666		C.1		1		UNL1		0.2255
20		N		-8.2666		1.2265		-0.0749		N.1		1		UNL1		-0.4880
21		C		-4.7938		1.8181		-0.0897		C.ar		1		UNL1		-0.1410
22		C		-3.4336		1.5607		-0.0784		C.ar		1		UNL1		-0.2061
23		N		0.5654		-0.7264		0.0062		N.ar		1		UNL1		-0.5810
24		C		2.9664		0.8978		1.0553		C.ar		1		UNL1		-0.1323
25		C		3.4055		2.2184		1.0505		C.ar		1		UNL1		-0.1907
26		H		5.0086		4.4714		-0.9705		H		1		UNL1		0.1598
27		H		3.9185		4.8309		0.3798		H		1		UNL1		0.1621
28		H		5.5585		4.2631		0.6959		H		1		UNL1		0.1680
29		H		5.1654		2.2013		-1.8475		H		1		UNL1		0.1286
30		H		4.4019		-0.1438		-1.8413		H		1		UNL1		0.1509
31		H		5.5177		-3.0350		0.3310		H		1		UNL1		0.3431
32		H		5.3763		-1.3339		0.2916		H		1		UNL1		0.3243
33		H		1.6773		-3.9044		0.0809		H		1		UNL1		0.1625
34		H		-0.8147		-4.2691		0.0816		H		1		UNL1		0.1497
35		H		-1.0141		0.9338		-0.0522		H		1		UNL1		0.3456
36		H		-3.4971		-1.8421		0.0336		H		1		UNL1		0.1893
37		H		-5.9317		-1.3879		0.0145		H		1		UNL1		0.1559
38		H		-5.1533		2.8415		-0.1248		H		1		UNL1		0.1549
39		H		-2.7311		2.3906		-0.1053		H		1		UNL1		0.1341
40		H		2.3359		0.5419		1.8639		H		1		UNL1		0.1385
41		H		3.1175		2.8790		1.8656		H		1		UNL1		0.1270
@<TRIPOS>BOND
1		29		3		1
2		30		4		1
3		3		4		ar
4		3		2		ar
5		4		5		ar
6		26		1		1
7		38		21		1
8		39		22		1
9		21		22		ar
10		21		18		ar
11		22		15		ar
12		20		19		3
13		19		18		1
14		18		17		ar
15		35		14		1
16		8		7		1
17		8		32		1
18		8		31		1
19		15		14		1
20		15		16		ar
21		14		13		1
22		17		16		ar
23		17		37		1
24		16		36		1
25		23		13		ar
26		23		9		ar
27		13		12		ar
28		2		1		1
29		2		25		ar
30		5		6		1
31		5		24		ar
32		7		6		2
33		6		9		1
34		1		27		1
35		1		28		1
36		9		10		ar
37		12		11		ar
38		11		10		ar
39		11		34		1
40		10		33		1
41		25		24		ar
42		25		41		1
43		24		40		1

