@<TRIPOS>MOLECULE
MXD-2011-CMC-2225-9n
 50 52 0 0 0
SMALL
MULLIKEN_CHARGES
****
Gaussian 16 #p B3LYP/6-31G* opt
@<TRIPOS>ATOM
1		C		7.7354		0.2206		0.2253		C.3		1		UNL1		-0.4400
2		C		6.7152		-0.9418		0.1751		C.3		1		UNL1		0.0144
3		C		6.9448		-1.8362		1.4081		C.3		1		UNL1		-0.4585
4		C		6.9699		-1.7927		-1.0921		C.3		1		UNL1		-0.4399
5		C		5.2882		-0.3670		0.1264		C.ar		1		UNL1		0.1846
6		C		4.9029		0.4701		-0.9355		C.ar		1		UNL1		-0.1917
7		C		3.6221		1.0095		-1.0171		C.ar		1		UNL1		-0.1661
8		C		2.6590		0.7294		-0.0332		C.ar		1		UNL1		0.0251
9		C		1.2837		1.3159		-0.1073		C.2		1		UNL1		0.1618
10		N		1.0383		2.5886		-0.0807		N.2		1		UNL1		-0.2678
11		N		2.0596		3.4690		-0.0216		N.pl3		1		UNL1		-0.5420
12		C		0.1077		0.4166		-0.2254		C.ar		1		UNL1		0.3203
13		C		0.2569		-0.9396		-0.5755		C.ar		1		UNL1		-0.2141
14		C		-0.9047		-1.6924		-0.6742		C.ar		1		UNL1		0.0678
15		N		-2.1285		-1.1969		-0.4574		N.ar		1		UNL1		-0.4804
16		C		-2.1583		0.1056		-0.1340		C.ar		1		UNL1		0.6903
17		N		-3.3687		0.7298		0.1093		N.pl3		1		UNL1		-0.7683
18		C		-4.6843		0.2749		0.0968		C.ar		1		UNL1		0.3847
19		C		-5.0671		-1.0491		-0.1933		C.ar		1		UNL1		-0.1611
20		C		-6.4109		-1.3995		-0.1766		C.ar		1		UNL1		-0.1538
21		C		-7.4074		-0.4562		0.1254		C.ar		1		UNL1		0.1293
22		C		-8.7876		-0.8316		0.1395		C.1		1		UNL1		0.2251
23		N		-9.9115		-1.1359		0.1517		N.1		1		UNL1		-0.4887
24		C		-7.0237		0.8657		0.4144		C.ar		1		UNL1		-0.1411
25		C		-5.6859		1.2216		0.3995		C.ar		1		UNL1		-0.2059
26		N		-1.1085		0.9311		-0.0007		N.ar		1		UNL1		-0.5466
27		C		3.0353		-0.1018		1.0299		C.ar		1		UNL1		-0.1602
28		C		4.3225		-0.6369		1.1062		C.ar		1		UNL1		-0.2003
29		H		7.5852		0.8367		1.1193		H		1		UNL1		0.1472
30		H		7.6536		0.8743		-0.6494		H		1		UNL1		0.1440
31		H		8.7586		-0.1728		0.2523		H		1		UNL1		0.1437
32		H		7.9706		-2.2209		1.3976		H		1		UNL1		0.1458
33		H		6.2696		-2.6994		1.4185		H		1		UNL1		0.1474
34		H		6.8101		-1.2839		2.3451		H		1		UNL1		0.1467
35		H		6.8656		-1.2031		-2.0088		H		1		UNL1		0.1447
36		H		6.2653		-2.6301		-1.1508		H		1		UNL1		0.1489
37		H		7.9861		-2.2045		-1.0749		H		1		UNL1		0.1433
38		H		5.6139		0.7065		-1.7222		H		1		UNL1		0.1335
39		H		3.3603		1.6507		-1.8545		H		1		UNL1		0.1526
40		H		1.7491		4.3645		0.3326		H		1		UNL1		0.3441
41		H		2.9434		3.1444		0.3724		H		1		UNL1		0.3209
42		H		1.2276		-1.3767		-0.7702		H		1		UNL1		0.1549
43		H		-0.8615		-2.7465		-0.9436		H		1		UNL1		0.1493
44		H		-3.2350		1.7078		0.3342		H		1		UNL1		0.3474
45		H		-4.3065		-1.7799		-0.4271		H		1		UNL1		0.1876
46		H		-6.6975		-2.4222		-0.4014		H		1		UNL1		0.1550
47		H		-7.7807		1.6071		0.6493		H		1		UNL1		0.1547
48		H		-5.4018		2.2471		0.6245		H		1		UNL1		0.1351
49		H		2.3131		-0.3357		1.8080		H		1		UNL1		0.1416
50		H		4.5642		-1.2738		1.9498		H		1		UNL1		0.1348
@<TRIPOS>BOND
1		35		4		1
2		39		7		1
3		38		6		1
4		36		4		1
5		4		37		1
6		4		2		1
7		7		6		ar
8		7		8		ar
9		43		14		1
10		6		5		ar
11		42		13		1
12		14		13		ar
13		14		15		ar
14		30		1		1
15		13		12		ar
16		15		16		ar
17		45		19		1
18		46		20		1
19		12		9		1
20		12		26		ar
21		19		20		ar
22		19		18		ar
23		20		21		ar
24		16		26		ar
25		16		17		1
26		9		10		2
27		9		8		1
28		10		11		1
29		8		27		ar
30		11		40		1
31		11		41		1
32		18		17		1
33		18		25		ar
34		17		44		1
35		21		22		1
36		21		24		ar
37		5		2		1
38		5		28		ar
39		22		23		3
40		2		1		1
41		2		3		1
42		1		31		1
43		1		29		1
44		25		24		ar
45		25		48		1
46		24		47		1
47		27		28		ar
48		27		49		1
49		28		50		1
50		32		3		1
51		3		33		1
52		3		34		1

