@<TRIPOS>MOLECULE
MXD-2011-BMC-4601-10j
 56 59 0 0 0
SMALL
MULLIKEN_CHARGES
****
Gaussian 16 #p B3LYP/6-31G* opt
@<TRIPOS>ATOM
1		C		-2.8140		1.3814		-0.0411		C.3		1		UNL1		-0.5807
2		C		-3.9359		0.3724		0.0120		C.ar		1		UNL1		0.1550
3		C		-5.2367		0.7884		0.2959		C.ar		1		UNL1		-0.2294
4		C		-6.2956		-0.1205		0.3110		C.ar		1		UNL1		-0.1425
5		S		-7.9467		0.4521		0.7182		S.O2		1		UNL1		1.1603
6		N		-8.1405		0.2620		2.3862		N.3		1		UNL1		-0.7853
7		O		-7.9825		1.8961		0.4873		O.2		1		UNL1		-0.5302
8		O		-8.8995		-0.4757		0.1107		O.2		1		UNL1		-0.5275
9		C		-6.0760		-1.4671		0.0245		C.ar		1		UNL1		-0.1745
10		C		-4.7860		-1.9089		-0.2518		C.ar		1		UNL1		-0.1513
11		C		-3.7136		-1.0015		-0.2492		C.ar		1		UNL1		0.2903
12		N		-2.3904		-1.4167		-0.5072		N.am		1		UNL1		-0.7364
13		C		-1.9662		-2.6250		-0.9875		C.2		1		UNL1		0.5862
14		O		-2.6679		-3.5827		-1.2787		O.2		1		UNL1		-0.4974
15		C		-0.4502		-2.7736		-1.1442		C.3		1		UNL1		-0.1223
16		O		0.2198		-1.5373		-0.9277		O.3		1		UNL1		-0.5474
17		C		1.5647		-1.5393		-0.6682		C.ar		1		UNL1		0.3672
18		C		2.3884		-2.6498		-0.9768		C.ar		1		UNL1		-0.1897
19		C		3.7383		-2.5961		-0.7218		C.ar		1		UNL1		-0.1936
20		C		4.3336		-1.4434		-0.1529		C.ar		1		UNL1		0.1381
21		C		5.7245		-1.3986		0.1325		C.ar		1		UNL1		-0.2207
22		C		6.2721		-0.2758		0.6997		C.ar		1		UNL1		0.0798
23		BR		8.1421		-0.2109		1.0848		Br		1		UNL1		-0.1219
24		C		5.4721		0.8459		1.0164		C.ar		1		UNL1		-0.1508
25		C		4.1240		0.8242		0.7446		C.ar		1		UNL1		-0.1981
26		C		3.5060		-0.3099		0.1426		C.ar		1		UNL1		0.1155
27		C		2.1067		-0.3729		-0.1388		C.ar		1		UNL1		-0.0813
28		C		1.1768		0.7696		0.2005		C.2		1		UNL1		0.3263
29		O		0.3072		0.6100		1.0503		O.2		1		UNL1		-0.4620
30		C		1.3182		2.0686		-0.5227		C.ar		1		UNL1		0.0746
31		C		0.6532		3.1973		-0.0136		C.ar		1		UNL1		-0.1565
32		C		0.7341		4.4178		-0.6762		C.ar		1		UNL1		-0.1343
33		C		1.4697		4.5220		-1.8614		C.ar		1		UNL1		-0.1166
34		C		2.1280		3.4042		-2.3783		C.ar		1		UNL1		-0.1337
35		C		2.0590		2.1830		-1.7096		C.ar		1		UNL1		-0.1664
36		H		-2.3312		1.3952		-1.0273		H		1		UNL1		0.1697
37		H		-2.0275		1.1838		0.6978		H		1		UNL1		0.2018
38		H		-3.1990		2.3874		0.1470		H		1		UNL1		0.1661
39		H		-5.4362		1.8399		0.4783		H		1		UNL1		0.1700
40		H		-7.4906		0.8387		2.9152		H		1		UNL1		0.3451
41		H		-8.1005		-0.7151		2.6667		H		1		UNL1		0.3463
42		H		-6.9089		-2.1622		-0.0019		H		1		UNL1		0.1753
43		H		-4.5988		-2.9468		-0.4866		H		1		UNL1		0.1959
44		H		-1.6491		-0.7537		-0.3096		H		1		UNL1		0.3847
45		H		-0.1194		-3.5294		-0.4210		H		1		UNL1		0.1869
46		H		-0.2639		-3.1577		-2.1541		H		1		UNL1		0.1846
47		H		1.9603		-3.5392		-1.4244		H		1		UNL1		0.1555
48		H		4.3667		-3.4502		-0.9595		H		1		UNL1		0.1497
49		H		6.3431		-2.2601		-0.0973		H		1		UNL1		0.1577
50		H		5.9275		1.7162		1.4760		H		1		UNL1		0.1602
51		H		3.5241		1.6899		1.0026		H		1		UNL1		0.1548
52		H		0.0850		3.0949		0.9051		H		1		UNL1		0.1630
53		H		0.2250		5.2890		-0.2734		H		1		UNL1		0.1454
54		H		1.5291		5.4747		-2.3808		H		1		UNL1		0.1462
55		H		2.6953		3.4840		-3.3012		H		1		UNL1		0.1451
56		H		2.5702		1.3143		-2.1121		H		1		UNL1		0.1532
@<TRIPOS>BOND
1		55		34		1
2		54		33		1
3		34		33		ar
4		34		35		ar
5		46		15		1
6		56		35		1
7		33		32		ar
8		35		30		ar
9		47		18		1
10		14		13		2
11		15		13		1
12		15		16		1
13		15		45		1
14		36		1		1
15		13		12		1
16		18		19		ar
17		18		17		ar
18		48		19		1
19		16		17		1
20		19		20		ar
21		32		53		1
22		32		31		ar
23		17		27		ar
24		30		31		ar
25		30		28		1
26		12		44		1
27		12		11		1
28		43		10		1
29		10		11		ar
30		10		9		ar
31		11		2		ar
32		20		21		ar
33		20		26		ar
34		27		26		ar
35		27		28		1
36		49		21		1
37		1		2		1
38		1		38		1
39		1		37		1
40		31		52		1
41		42		9		1
42		2		3		ar
43		9		4		ar
44		8		5		2
45		21		22		ar
46		26		25		ar
47		28		29		2
48		3		4		ar
49		3		39		1
50		4		5		1
51		7		5		2
52		22		24		ar
53		22		23		1
54		5		6		1
55		25		51		1
56		25		24		ar
57		24		50		1
58		6		41		1
59		6		40		1

