@<TRIPOS>MOLECULE
MXD-2011-BMC-4601-10b
 59 62 0 0 0
SMALL
MULLIKEN_CHARGES
****
Gaussian 16 #p B3LYP/6-31G* opt
@<TRIPOS>ATOM
1		C		5.7580		-4.8888		0.8080		C.3		1		UNL1		-0.5302
2		C		5.0075		-3.7360		0.1810		C.ar		1		UNL1		0.1743
3		C		4.5527		-3.8148		-1.1462		C.ar		1		UNL1		-0.1662
4		C		3.8629		-2.7558		-1.7334		C.ar		1		UNL1		-0.1424
5		C		3.6112		-1.5904		-1.0089		C.ar		1		UNL1		-0.1690
6		C		4.0551		-1.4909		0.3154		C.ar		1		UNL1		0.0932
7		C		3.8603		-0.2629		1.1456		C.2		1		UNL1		0.3296
8		O		4.3701		-0.1688		2.2559		O.2		1		UNL1		-0.4698
9		C		3.0856		0.9162		0.5943		C.ar		1		UNL1		-0.0583
10		C		1.7271		0.8078		0.3316		C.ar		1		UNL1		0.3578
11		O		1.1678		-0.4252		0.5727		O.3		1		UNL1		-0.5187
12		C		-0.1849		-0.6607		0.2746		C.3		1		UNL1		-0.1366
13		C		-0.4417		-0.7128		-1.2406		C.2		1		UNL1		0.5664
14		O		0.4666		-0.7956		-2.0480		O.2		1		UNL1		-0.4670
15		N		-1.7529		-0.6361		-1.6883		N.am		1		UNL1		-0.7112
16		C		-2.9841		-0.4900		-1.0128		C.ar		1		UNL1		0.2743
17		C		-3.2641		-1.1913		0.1686		C.ar		1		UNL1		-0.1481
18		C		-4.4853		-1.0327		0.8174		C.ar		1		UNL1		-0.1679
19		C		-5.4478		-0.1953		0.2565		C.ar		1		UNL1		-0.1419
20		S		-7.0462		-0.0069		1.0604		S.O2		1		UNL1		1.1677
21		N		-8.0609		-1.2008		0.4443		N.3		1		UNL1		-0.7855
22		O		-7.6122		1.2604		0.6025		O.2		1		UNL1		-0.5244
23		O		-6.8604		-0.3420		2.4705		O.2		1		UNL1		-0.5231
24		C		-5.1883		0.4914		-0.9312		C.ar		1		UNL1		-0.2267
25		C		-3.9609		0.3623		-1.5821		C.ar		1		UNL1		0.1674
26		C		-3.6818		1.1295		-2.8521		C.3		1		UNL1		-0.5514
27		C		0.9758		1.9219		-0.1144		C.ar		1		UNL1		-0.1806
28		C		1.5957		3.1353		-0.2957		C.ar		1		UNL1		-0.2010
29		C		2.9778		3.3038		-0.0365		C.ar		1		UNL1		0.1376
30		C		3.6208		4.5564		-0.2273		C.ar		1		UNL1		-0.1939
31		C		4.9622		4.7075		0.0319		C.ar		1		UNL1		-0.1344
32		C		5.7149		3.6025		0.4979		C.ar		1		UNL1		-0.1357
33		C		5.1234		2.3754		0.6951		C.ar		1		UNL1		-0.1880
34		C		3.7368		2.1805		0.4332		C.ar		1		UNL1		0.1011
35		C		4.7504		-2.5664		0.8943		C.ar		1		UNL1		-0.2206
36		H		6.6966		-5.0917		0.2768		H		1		UNL1		0.1619
37		H		5.1682		-5.8135		0.7815		H		1		UNL1		0.1589
38		H		6.0057		-4.6800		1.8532		H		1		UNL1		0.1609
39		H		4.7427		-4.7186		-1.7223		H		1		UNL1		0.1231
40		H		3.5145		-2.8363		-2.7594		H		1		UNL1		0.1342
41		H		3.0608		-0.7788		-1.4695		H		1		UNL1		0.1669
42		H		-0.8492		0.0631		0.7647		H		1		UNL1		0.1783
43		H		-0.3924		-1.6442		0.7069		H		1		UNL1		0.1947
44		H		-1.7792		-0.5687		-2.7001		H		1		UNL1		0.3441
45		H		-2.5346		-1.8822		0.5746		H		1		UNL1		0.1524
46		H		-4.6872		-1.5508		1.7490		H		1		UNL1		0.1840
47		H		-8.2512		-1.0869		-0.5478		H		1		UNL1		0.3496
48		H		-7.7584		-2.1411		0.6845		H		1		UNL1		0.3502
49		H		-5.9412		1.1641		-1.3306		H		1		UNL1		0.1780
50		H		-2.7588		1.7163		-2.7747		H		1		UNL1		0.1803
51		H		-4.5011		1.8174		-3.0762		H		1		UNL1		0.1788
52		H		-3.5712		0.4652		-3.7211		H		1		UNL1		0.1667
53		H		-0.0851		1.8293		-0.3171		H		1		UNL1		0.1296
54		H		1.0186		3.9888		-0.6430		H		1		UNL1		0.1344
55		H		3.0273		5.3954		-0.5837		H		1		UNL1		0.1279
56		H		5.4459		5.6689		-0.1166		H		1		UNL1		0.1293
57		H		6.7741		3.7258		0.7071		H		1		UNL1		0.1321
58		H		5.7132		1.5476		1.0703		H		1		UNL1		0.1552
59		H		5.0879		-2.4602		1.9210		H		1		UNL1		0.1514
@<TRIPOS>BOND
1		52		26		1
2		51		26		1
3		26		50		1
4		26		25		1
5		40		4		1
6		44		15		1
7		14		13		2
8		4		3		ar
9		4		5		ar
10		39		3		1
11		15		13		1
12		15		16		1
13		25		16		ar
14		25		24		ar
15		41		5		1
16		49		24		1
17		13		12		1
18		3		2		ar
19		16		17		ar
20		5		6		ar
21		24		19		ar
22		54		28		1
23		55		30		1
24		47		21		1
25		53		27		1
26		28		27		ar
27		28		29		ar
28		30		29		ar
29		30		31		ar
30		56		31		1
31		27		10		ar
32		29		34		ar
33		31		32		ar
34		17		45		1
35		17		18		ar
36		2		1		1
37		2		35		ar
38		19		18		ar
39		19		20		1
40		12		11		1
41		12		43		1
42		12		42		1
43		36		1		1
44		6		35		ar
45		6		7		1
46		10		11		1
47		10		9		ar
48		34		9		ar
49		34		33		ar
50		21		48		1
51		21		20		1
52		32		33		ar
53		32		57		1
54		9		7		1
55		22		20		2
56		33		58		1
57		37		1		1
58		1		38		1
59		18		46		1
60		35		59		1
61		20		23		2
62		7		8		2

