@<TRIPOS>MOLECULE
MXD-2011-CMC-2225-9f
 38 40 0 0 0
SMALL
MULLIKEN_CHARGES
****
Gaussian 16 #p B3LYP/6-31G* opt
@<TRIPOS>ATOM
1		N		8.9365		-0.5230		-0.0640		N.1		1		UNL1		-0.4877
2		C		7.7888		-0.3276		-0.0414		C.1		1		UNL1		0.2257
3		C		6.3791		-0.0859		-0.0127		C.ar		1		UNL1		0.1298
4		C		5.4677		-1.1375		-0.2052		C.ar		1		UNL1		-0.1537
5		C		4.0965		-0.9172		-0.1793		C.ar		1		UNL1		-0.1609
6		C		3.5997		0.3814		0.0435		C.ar		1		UNL1		0.3844
7		N		2.2471		0.7107		0.0903		N.pl3		1		UNL1		-0.7683
8		C		1.0947		-0.0388		-0.0551		C.ar		1		UNL1		0.6914
9		N		1.1773		-1.3577		-0.2931		N.ar		1		UNL1		-0.4792
10		C		0.0002		-1.9797		-0.4209		C.ar		1		UNL1		0.0686
11		C		-1.2245		-1.3345		-0.3162		C.ar		1		UNL1		-0.2146
12		C		-1.1924		0.0497		-0.0599		C.ar		1		UNL1		0.3208
13		C		-2.4429		0.8428		0.0548		C.2		1		UNL1		0.1638
14		N		-2.3232		2.1312		-0.0160		N.2		1		UNL1		-0.2634
15		N		-3.4160		2.9181		0.0309		N.pl3		1		UNL1		-0.5406
16		C		-3.7511		0.1355		0.2372		C.ar		1		UNL1		0.0204
17		C		-3.9881		-0.6495		1.3779		C.ar		1		UNL1		-0.1547
18		C		-5.2132		-1.2942		1.5530		C.ar		1		UNL1		-0.1349
19		C		-6.2241		-1.1697		0.5988		C.ar		1		UNL1		-0.1918
20		C		-5.9769		-0.3878		-0.5238		C.ar		1		UNL1		0.3851
21		F		-6.9434		-0.2596		-1.4553		F		1		UNL1		-0.2929
22		C		-4.7674		0.2671		-0.7228		C.ar		1		UNL1		-0.2355
23		N		-0.0247		0.6909		0.0749		N.ar		1		UNL1		-0.5465
24		C		4.5158		1.4370		0.2362		C.ar		1		UNL1		-0.2058
25		C		5.8814		1.2107		0.2091		C.ar		1		UNL1		-0.1409
26		H		5.8427		-2.1415		-0.3775		H		1		UNL1		0.1558
27		H		3.4018		-1.7309		-0.3287		H		1		UNL1		0.1878
28		H		2.0295		1.6851		0.2580		H		1		UNL1		0.3478
29		H		0.0484		-3.0490		-0.6207		H		1		UNL1		0.1513
30		H		-2.1545		-1.8743		-0.4389		H		1		UNL1		0.1542
31		H		-3.1771		3.8648		0.2956		H		1		UNL1		0.3477
32		H		-4.2541		2.5513		0.4828		H		1		UNL1		0.3227
33		H		-3.2076		-0.7541		2.1257		H		1		UNL1		0.1484
34		H		-5.3849		-1.8981		2.4395		H		1		UNL1		0.1489
35		H		-7.1848		-1.6614		0.7104		H		1		UNL1		0.1555
36		H		-4.6232		0.8639		-1.6175		H		1		UNL1		0.1702
37		H		4.1430		2.4440		0.4084		H		1		UNL1		0.1356
38		H		6.5719		2.0344		0.3592		H		1		UNL1		0.1556
@<TRIPOS>BOND
1		36		22		1
2		21		20		1
3		22		20		ar
4		22		16		ar
5		29		10		1
6		20		19		ar
7		30		11		1
8		10		11		ar
9		10		9		ar
10		26		4		1
11		27		5		1
12		11		12		ar
13		9		8		ar
14		4		5		ar
15		4		3		ar
16		5		6		ar
17		1		2		3
18		12		13		1
19		12		23		ar
20		8		23		ar
21		8		7		1
22		2		3		1
23		14		15		1
24		14		13		2
25		3		25		ar
26		15		31		1
27		15		32		1
28		6		7		1
29		6		24		ar
30		13		16		1
31		7		28		1
32		25		24		ar
33		25		38		1
34		24		37		1
35		16		17		ar
36		19		35		1
37		19		18		ar
38		17		18		ar
39		17		33		1
40		18		34		1

