@<TRIPOS>MOLECULE
MXD-2011-BMC-4601-10d
 62 65 0 0 0
SMALL
MULLIKEN_CHARGES
****
Gaussian 16 #p B3LYP/6-31G* opt
@<TRIPOS>ATOM
1		C		1.2641		5.2481		-0.5378		C.3		1		UNL1		-0.5318
2		C		1.9362		4.0139		0.0182		C.ar		1		UNL1		0.1797
3		C		2.7857		4.1074		1.1324		C.ar		1		UNL1		-0.2189
4		C		3.4322		2.9913		1.6736		C.ar		1		UNL1		0.1782
5		C		4.3114		3.1200		2.8962		C.3		1		UNL1		-0.5304
6		C		3.2278		1.7471		1.0660		C.ar		1		UNL1		-0.2283
7		C		2.3811		1.6219		-0.0424		C.ar		1		UNL1		0.0876
8		C		2.1082		0.2988		-0.6792		C.2		1		UNL1		0.3266
9		O		1.1575		0.1461		-1.4395		O.2		1		UNL1		-0.4659
10		C		3.0043		-0.8766		-0.3618		C.ar		1		UNL1		-0.0812
11		C		2.4530		-1.9792		0.2809		C.ar		1		UNL1		0.3646
12		O		1.1397		-1.8835		0.6644		O.3		1		UNL1		-0.5481
13		C		0.4260		-3.0666		0.9986		C.3		1		UNL1		-0.1205
14		C		-1.0874		-2.8347		0.9734		C.2		1		UNL1		0.5853
15		O		-1.8115		-3.7292		1.3865		O.2		1		UNL1		-0.4995
16		N		-1.4867		-1.6317		0.4596		N.am		1		UNL1		-0.7363
17		C		-2.8032		-1.1517		0.2984		C.ar		1		UNL1		0.2916
18		C		-3.9181		-1.9920		0.4441		C.ar		1		UNL1		-0.1521
19		C		-5.2026		-1.4878		0.2611		C.ar		1		UNL1		-0.1675
20		C		-5.3695		-0.1466		-0.0726		C.ar		1		UNL1		-0.1269
21		S		-7.0113		0.5111		-0.3177		S.O2		1		UNL1		1.1618
22		N		-7.1840		0.5110		-2.0131		N.3		1		UNL1		-0.8136
23		O		-7.9645		-0.4475		0.2536		O.2		1		UNL1		-0.5293
24		O		-7.0125		1.9268		0.0669		O.2		1		UNL1		-0.5476
25		C		-4.2670		0.6991		-0.2023		C.ar		1		UNL1		-0.2104
26		C		-2.9720		0.2197		-0.0166		C.ar		1		UNL1		0.1520
27		C		-1.7948		1.1587		-0.1240		C.3		1		UNL1		-0.5794
28		C		3.2393		-3.1200		0.5754		C.ar		1		UNL1		-0.1896
29		C		4.5598		-3.1584		0.1935		C.ar		1		UNL1		-0.1978
30		C		5.1617		-2.0753		-0.4924		C.ar		1		UNL1		0.1386
31		C		6.5188		-2.1218		-0.9106		C.ar		1		UNL1		-0.1923
32		C		7.0846		-1.0703		-1.5921		C.ar		1		UNL1		-0.1351
33		C		6.3057		0.0742		-1.8885		C.ar		1		UNL1		-0.1342
34		C		4.9891		0.1540		-1.4946		C.ar		1		UNL1		-0.1971
35		C		4.3727		-0.9102		-0.7749		C.ar		1		UNL1		0.1085
36		C		1.7369		2.7597		-0.5560		C.ar		1		UNL1		-0.2255
37		H		2.0018		5.9862		-0.8764		H		1		UNL1		0.1660
38		H		0.6424		5.7398		0.2204		H		1		UNL1		0.1673
39		H		0.6223		5.0028		-1.3891		H		1		UNL1		0.1627
40		H		2.9483		5.0823		1.5896		H		1		UNL1		0.1253
41		H		5.1173		2.3787		2.8890		H		1		UNL1		0.1636
42		H		4.7654		4.1143		2.9607		H		1		UNL1		0.1601
43		H		3.7344		2.9648		3.8174		H		1		UNL1		0.1715
44		H		3.7249		0.8676		1.4647		H		1		UNL1		0.1431
45		H		0.6458		-3.8709		0.2853		H		1		UNL1		0.1854
46		H		0.6828		-3.4194		2.0046		H		1		UNL1		0.1817
47		H		-0.7310		-1.0279		0.1549		H		1		UNL1		0.3857
48		H		-3.7677		-3.0278		0.7121		H		1		UNL1		0.1937
49		H		-6.0680		-2.1289		0.3880		H		1		UNL1		0.1762
50		H		-7.7667		-0.2744		-2.2987		H		1		UNL1		0.3494
51		H		-7.6175		1.3928		-2.2825		H		1		UNL1		0.3542
52		H		-4.4219		1.7489		-0.4298		H		1		UNL1		0.1649
53		H		-1.2194		1.1929		0.8107		H		1		UNL1		0.1680
54		H		-1.0949		0.8756		-0.9197		H		1		UNL1		0.2044
55		H		-2.1384		2.1755		-0.3332		H		1		UNL1		0.1634
56		H		2.8075		-3.9578		1.1104		H		1		UNL1		0.1506
57		H		5.1604		-4.0357		0.4202		H		1		UNL1		0.1427
58		H		7.1007		-3.0124		-0.6852		H		1		UNL1		0.1347
59		H		8.1223		-1.1162		-1.9100		H		1		UNL1		0.1351
60		H		6.7517		0.8989		-2.4377		H		1		UNL1		0.1366
61		H		4.4106		1.0375		-1.7413		H		1		UNL1		0.1459
62		H		1.0875		2.6420		-1.4180		H		1		UNL1		0.1523
@<TRIPOS>BOND
1		60		33		1
2		50		22		1
3		51		22		1
4		22		21		1
5		59		32		1
6		33		32		ar
7		33		34		ar
8		61		34		1
9		32		31		ar
10		34		35		ar
11		9		8		2
12		62		36		1
13		39		1		1
14		54		27		1
15		31		58		1
16		31		30		ar
17		37		1		1
18		35		30		ar
19		35		10		ar
20		8		10		1
21		8		7		1
22		36		7		ar
23		36		2		ar
24		1		2		1
25		1		38		1
26		30		29		ar
27		52		25		1
28		10		11		ar
29		55		27		1
30		21		20		1
31		21		24		2
32		21		23		2
33		25		20		ar
34		25		26		ar
35		27		26		1
36		27		53		1
37		20		19		ar
38		7		6		ar
39		26		17		ar
40		2		3		ar
41		47		16		1
42		29		57		1
43		29		28		ar
44		19		49		1
45		19		18		ar
46		11		28		ar
47		11		12		1
48		45		13		1
49		17		18		ar
50		17		16		1
51		18		48		1
52		16		14		1
53		28		56		1
54		12		13		1
55		14		13		1
56		14		15		2
57		13		46		1
58		6		44		1
59		6		4		ar
60		3		40		1
61		3		4		ar
62		4		5		1
63		41		5		1
64		5		42		1
65		5		43		1

