@<TRIPOS>MOLECULE
MXD-2011-BMC-4704-7i
 58 60 0 0 0
SMALL
MULLIKEN_CHARGES
****
Gaussian 16 #p B3LYP/6-31G* opt
@<TRIPOS>ATOM
1		C		3.7399		-1.2345		-2.8402		C.3		1		UNL1		-0.5672
2		C		4.1408		-0.8518		-1.4337		C.ar		1		UNL1		0.1535
3		C		5.4885		-0.7456		-1.0974		C.ar		1		UNL1		-0.2113
4		C		5.8754		-0.3990		0.1973		C.ar		1		UNL1		-0.1250
5		S		7.6155		-0.2730		0.5865		S.O2		1		UNL1		1.1657
6		N		8.0168		1.3055		0.0921		N.3		1		UNL1		-0.8145
7		O		7.7476		-0.3529		2.0450		O.2		1		UNL1		-0.5271
8		O		8.3532		-1.1645		-0.3145		O.2		1		UNL1		-0.5445
9		C		4.9235		-0.1630		1.1855		C.ar		1		UNL1		-0.1645
10		C		3.5702		-0.2596		0.8738		C.ar		1		UNL1		-0.1548
11		C		3.1743		-0.5999		-0.4287		C.ar		1		UNL1		0.2959
12		N		1.8154		-0.7118		-0.7900		N.am		1		UNL1		-0.7333
13		C		0.6891		-0.5503		-0.0070		C.2		1		UNL1		0.5977
14		O		0.6828		-0.2139		1.1613		O.2		1		UNL1		-0.4668
15		C		-0.6098		-0.8930		-0.7675		C.3		1		UNL1		-0.1414
16		O		-1.7571		-0.4212		-0.1119		O.3		1		UNL1		-0.5083
17		C		-2.0714		0.9146		-0.1764		C.ar		1		UNL1		0.3639
18		C		-1.2871		1.8806		-0.8074		C.ar		1		UNL1		-0.1797
19		C		-1.7013		3.2154		-0.8285		C.ar		1		UNL1		-0.1412
20		C		-2.8926		3.5658		-0.2071		C.ar		1		UNL1		-0.0644
21		CL		-3.4195		5.2465		-0.2158		Cl		1		UNL1		-0.0322
22		C		-3.6752		2.6053		0.4358		C.ar		1		UNL1		-0.1919
23		C		-3.2834		1.2699		0.4482		C.ar		1		UNL1		0.0674
24		C		-4.1125		0.2065		1.1621		C.3		1		UNL1		0.0121
25		O		-5.1053		0.7980		2.0141		O.3		1		UNL1		-0.6195
26		C		-4.7661		-0.8191		0.2355		C.ar		1		UNL1		0.0762
27		C		-5.0905		-0.4712		-1.0803		C.ar		1		UNL1		-0.1971
28		C		-5.7406		-1.3783		-1.9137		C.ar		1		UNL1		-0.1307
29		C		-6.0617		-2.6427		-1.4301		C.ar		1		UNL1		-0.1813
30		C		-5.7576		-3.0166		-0.1142		C.ar		1		UNL1		0.1288
31		C		-6.1286		-4.4070		0.3568		C.3		1		UNL1		-0.5379
32		C		-5.1164		-2.0929		0.7380		C.ar		1		UNL1		0.0788
33		C		-4.7985		-2.4567		2.1744		C.3		1		UNL1		-0.5535
34		H		3.1592		-2.1673		-2.8675		H		1		UNL1		0.1663
35		H		4.6247		-1.3918		-3.4620		H		1		UNL1		0.1833
36		H		3.1395		-0.4534		-3.3277		H		1		UNL1		0.1652
37		H		6.2475		-0.9499		-1.8458		H		1		UNL1		0.1700
38		H		8.1311		1.9031		0.9090		H		1		UNL1		0.3530
39		H		8.8827		1.2593		-0.4427		H		1		UNL1		0.3569
40		H		5.2363		0.0802		2.1951		H		1		UNL1		0.1814
41		H		2.8162		-0.0790		1.6264		H		1		UNL1		0.2015
42		H		1.6476		-0.9770		-1.7508		H		1		UNL1		0.3401
43		H		-0.7162		-1.9834		-0.7892		H		1		UNL1		0.1962
44		H		-0.5689		-0.5399		-1.8090		H		1		UNL1		0.1534
45		H		-0.3416		1.6218		-1.2705		H		1		UNL1		0.1330
46		H		-1.0915		3.9693		-1.3144		H		1		UNL1		0.1537
47		H		-4.5830		2.8916		0.9530		H		1		UNL1		0.1576
48		H		-3.4328		-0.3159		1.8416		H		1		UNL1		0.1700
49		H		-5.9212		0.8658		1.4929		H		1		UNL1		0.3930
50		H		-4.8216		0.5118		-1.4560		H		1		UNL1		0.1358
51		H		-5.9898		-1.1021		-2.9349		H		1		UNL1		0.1268
52		H		-6.5605		-3.3584		-2.0796		H		1		UNL1		0.1208
53		H		-6.8683		-4.3840		1.1673		H		1		UNL1		0.1647
54		H		-6.5601		-4.9900		-0.4626		H		1		UNL1		0.1541
55		H		-5.2595		-4.9592		0.7343		H		1		UNL1		0.1616
56		H		-3.7394		-2.7235		2.2971		H		1		UNL1		0.1662
57		H		-5.3866		-3.3106		2.5170		H		1		UNL1		0.1545
58		H		-5.0060		-1.6193		2.8459		H		1		UNL1		0.1890
@<TRIPOS>BOND
1		35		1		1
2		36		1		1
3		51		28		1
4		34		1		1
5		1		2		1
6		52		29		1
7		28		29		ar
8		28		27		ar
9		37		3		1
10		44		15		1
11		42		12		1
12		50		27		1
13		2		3		ar
14		2		11		ar
15		29		30		ar
16		46		19		1
17		45		18		1
18		3		4		ar
19		27		26		ar
20		19		18		ar
21		19		20		ar
22		18		17		ar
23		12		11		1
24		12		13		1
25		43		15		1
26		15		16		1
27		15		13		1
28		54		31		1
29		39		6		1
30		11		10		ar
31		8		5		2
32		21		20		1
33		20		22		ar
34		17		16		1
35		17		23		ar
36		30		31		1
37		30		32		ar
38		13		14		2
39		6		5		1
40		6		38		1
41		4		5		1
42		4		9		ar
43		26		32		ar
44		26		24		1
45		31		55		1
46		31		53		1
47		22		23		ar
48		22		47		1
49		23		24		1
50		5		7		2
51		32		33		1
52		10		9		ar
53		10		41		1
54		24		48		1
55		24		25		1
56		9		40		1
57		49		25		1
58		33		56		1
59		33		57		1
60		33		58		1

