@<TRIPOS>MOLECULE
MXD-2011-BMC-4601-10h
 56 59 0 0 0
SMALL
MULLIKEN_CHARGES
****
Gaussian 16 #p B3LYP/6-31G* opt
@<TRIPOS>ATOM
1		C		-4.7006		0.4402		-3.3061		C.3		1		UNL1		-0.5678
2		C		-4.7413		0.1416		-1.8246		C.ar		1		UNL1		0.1539
3		C		-5.9573		-0.1321		-1.2019		C.ar		1		UNL1		-0.2126
4		C		-6.0119		-0.4151		0.1627		C.ar		1		UNL1		-0.1233
5		S		-7.5936		-0.7581		0.9230		S.O2		1		UNL1		1.1668
6		N		-8.1914		0.7877		1.3101		N.3		1		UNL1		-0.8149
7		O		-8.4914		-1.2831		-0.1109		O.2		1		UNL1		-0.5429
8		O		-7.3344		-1.4770		2.1745		O.2		1		UNL1		-0.5276
9		C		-4.8509		-0.4447		0.9307		C.ar		1		UNL1		-0.1643
10		C		-3.6237		-0.1723		0.3326		C.ar		1		UNL1		-0.1544
11		C		-3.5640		0.1243		-1.0374		C.ar		1		UNL1		0.2950
12		N		-2.3430		0.4051		-1.6882		N.am		1		UNL1		-0.7325
13		C		-1.0723		0.4805		-1.1612		C.2		1		UNL1		0.6046
14		O		-0.7858		0.3438		0.0143		O.2		1		UNL1		-0.4710
15		C		-0.0033		0.7551		-2.2405		C.3		1		UNL1		-0.1463
16		O		1.2837		0.9007		-1.7011		O.3		1		UNL1		-0.5181
17		C		1.6108		2.0202		-0.9720		C.ar		1		UNL1		0.3630
18		C		0.7471		3.1323		-0.8303		C.ar		1		UNL1		-0.1764
19		C		1.1698		4.2372		-0.1311		C.ar		1		UNL1		-0.1982
20		C		2.4614		4.2984		0.4479		C.ar		1		UNL1		0.1361
21		C		2.8943		5.4414		1.1719		C.ar		1		UNL1		-0.1932
22		C		4.1507		5.4898		1.7275		C.ar		1		UNL1		-0.1334
23		C		5.0266		4.3883		1.5759		C.ar		1		UNL1		-0.1345
24		C		4.6396		3.2652		0.8799		C.ar		1		UNL1		-0.1895
25		C		3.3450		3.1791		0.2935		C.ar		1		UNL1		0.1043
26		C		2.8820		2.0221		-0.4134		C.ar		1		UNL1		-0.0650
27		C		3.8087		0.8518		-0.6298		C.2		1		UNL1		0.3412
28		O		4.8828		1.0209		-1.1901		O.2		1		UNL1		-0.4573
29		C		3.4498		-0.5086		-0.0970		C.ar		1		UNL1		0.0800
30		C		2.3456		-0.7271		0.7367		C.ar		1		UNL1		-0.1544
31		C		2.1193		-2.0092		1.2326		C.ar		1		UNL1		-0.0861
32		CL		0.7463		-2.3005		2.2884		Cl		1		UNL1		-0.0048
33		C		2.9567		-3.0781		0.9151		C.ar		1		UNL1		-0.1379
34		C		4.0469		-2.8347		0.0793		C.ar		1		UNL1		0.0755
35		BR		5.2039		-4.2896		-0.3701		Br		1		UNL1		-0.1147
36		C		4.3082		-1.5687		-0.4247		C.ar		1		UNL1		-0.1736
37		H		-5.7066		0.4075		-3.7318		H		1		UNL1		0.1844
38		H		-4.0954		-0.2905		-3.8612		H		1		UNL1		0.1674
39		H		-4.2945		1.4395		-3.5172		H		1		UNL1		0.1649
40		H		-6.8716		-0.1411		-1.7866		H		1		UNL1		0.1712
41		H		-9.1505		0.8523		0.9731		H		1		UNL1		0.3572
42		H		-8.1548		0.9253		2.3187		H		1		UNL1		0.3539
43		H		-4.9015		-0.6951		1.9847		H		1		UNL1		0.1819
44		H		-2.7120		-0.1925		0.9122		H		1		UNL1		0.2041
45		H		-2.4141		0.5530		-2.6860		H		1		UNL1		0.3422
46		H		-0.2884		1.6211		-2.8566		H		1		UNL1		0.1644
47		H		0.0624		-0.1141		-2.9042		H		1		UNL1		0.1974
48		H		-0.2489		3.1195		-1.2570		H		1		UNL1		0.1325
49		H		0.5027		5.0877		-0.0153		H		1		UNL1		0.1397
50		H		2.2085		6.2787		1.2783		H		1		UNL1		0.1315
51		H		4.4742		6.3674		2.2799		H		1		UNL1		0.1330
52		H		6.0209		4.4304		2.0123		H		1		UNL1		0.1360
53		H		5.3331		2.4415		0.7612		H		1		UNL1		0.1559
54		H		1.6639		0.0756		0.9875		H		1		UNL1		0.1949
55		H		2.7649		-4.0690		1.3082		H		1		UNL1		0.1776
56		H		5.1625		-1.3773		-1.0624		H		1		UNL1		0.1843
@<TRIPOS>BOND
1		38		1		1
2		37		1		1
3		39		1		1
4		1		2		1
5		47		15		1
6		46		15		1
7		45		12		1
8		15		16		1
9		15		13		1
10		2		3		ar
11		2		11		ar
12		40		3		1
13		16		17		1
14		12		13		1
15		12		11		1
16		48		18		1
17		3		4		ar
18		28		27		2
19		13		14		2
20		56		36		1
21		11		10		ar
22		17		18		ar
23		17		26		ar
24		18		19		ar
25		27		26		1
26		27		29		1
27		36		29		ar
28		36		34		ar
29		26		25		ar
30		35		34		1
31		19		49		1
32		19		20		ar
33		7		5		2
34		29		30		ar
35		34		33		ar
36		4		5		1
37		4		9		ar
38		25		20		ar
39		25		24		ar
40		10		44		1
41		10		9		ar
42		20		21		ar
43		30		54		1
44		30		31		ar
45		53		24		1
46		24		23		ar
47		33		31		ar
48		33		55		1
49		5		6		1
50		5		8		2
51		9		43		1
52		41		6		1
53		21		50		1
54		21		22		ar
55		31		32		1
56		6		42		1
57		23		22		ar
58		23		52		1
59		22		51		1

