@<TRIPOS>MOLECULE
MXD-2011-BMC-4704-7k
 58 60 0 0 0
SMALL
MULLIKEN_CHARGES
****
Gaussian 16 #p B3LYP/6-31G* opt
@<TRIPOS>ATOM
1		C		-4.0175		4.7781		-0.2873		C.3		1		UNL1		-0.5319
2		C		-4.5318		3.3570		-0.2792		C.ar		1		UNL1		0.1812
3		C		-5.7950		3.0456		0.2329		C.ar		1		UNL1		-0.1730
4		C		-6.2663		1.7361		0.2012		C.ar		1		UNL1		-0.1858
5		C		-5.5105		0.6791		-0.3248		C.ar		1		UNL1		0.1340
6		C		-6.1053		-0.7112		-0.3243		C.3		1		UNL1		-0.5452
7		C		-4.2296		0.9820		-0.8344		C.ar		1		UNL1		0.1534
8		C		-3.2930		-0.0611		-1.4434		C.3		1		UNL1		-0.0037
9		O		-3.9726		-0.7069		-2.5210		O.3		1		UNL1		-0.6205
10		C		-2.7412		-1.0737		-0.4310		C.ar		1		UNL1		0.0812
11		C		-3.1423		-2.4098		-0.4547		C.ar		1		UNL1		-0.2175
12		C		-2.6309		-3.3224		0.4685		C.ar		1		UNL1		-0.0590
13		CL		-3.1658		-4.9973		0.4127		Cl		1		UNL1		-0.0202
14		C		-1.7072		-2.9265		1.4286		C.ar		1		UNL1		-0.1446
15		C		-1.2812		-1.5967		1.4534		C.ar		1		UNL1		-0.1788
16		C		-1.7915		-0.6810		0.5315		C.ar		1		UNL1		0.3158
17		O		-1.3805		0.6363		0.4694		O.3		1		UNL1		-0.5438
18		C		-0.8582		1.2511		1.6446		C.3		1		UNL1		-0.1421
19		C		0.6672		1.1575		1.7915		C.2		1		UNL1		0.5793
20		O		1.1926		1.4376		2.8580		O.2		1		UNL1		-0.4918
21		N		1.3094		0.7922		0.6361		N.am		1		UNL1		-0.7276
22		C		2.6875		0.6433		0.3934		C.ar		1		UNL1		0.2958
23		C		3.6502		0.9698		1.3623		C.ar		1		UNL1		-0.1543
24		C		5.0032		0.8150		1.0775		C.ar		1		UNL1		-0.1726
25		C		5.3953		0.3294		-0.1695		C.ar		1		UNL1		-0.1424
26		S		7.1379		0.0933		-0.5332		S.O2		1		UNL1		1.1625
27		N		7.5567		-1.4500		0.0059		N.3		1		UNL1		-0.7852
28		O		7.8913		1.0166		0.3131		O.2		1		UNL1		-0.5256
29		O		7.2775		0.0468		-1.9883		O.2		1		UNL1		-0.5285
30		C		4.4420		0.0130		-1.1388		C.ar		1		UNL1		-0.2287
31		C		3.0803		0.1624		-0.8790		C.ar		1		UNL1		0.1572
32		C		2.0615		-0.1775		-1.9424		C.3		1		UNL1		-0.5678
33		C		-3.7749		2.3068		-0.8053		C.ar		1		UNL1		-0.2522
34		H		-4.5497		5.3920		-1.0256		H		1		UNL1		0.1677
35		H		-2.9519		4.8181		-0.5363		H		1		UNL1		0.1505
36		H		-4.1535		5.2608		0.6877		H		1		UNL1		0.1597
37		H		-6.4191		3.8319		0.6526		H		1		UNL1		0.1229
38		H		-7.2563		1.5195		0.5963		H		1		UNL1		0.1241
39		H		-5.5730		-1.3814		0.3611		H		1		UNL1		0.1649
40		H		-6.0622		-1.1635		-1.3183		H		1		UNL1		0.1869
41		H		-7.1512		-0.6772		-0.0039		H		1		UNL1		0.1493
42		H		-2.4317		0.4928		-1.8421		H		1		UNL1		0.1351
43		H		-3.3239		-1.2566		-2.9899		H		1		UNL1		0.3947
44		H		-3.8695		-2.7293		-1.1915		H		1		UNL1		0.1679
45		H		-1.3132		-3.6416		2.1425		H		1		UNL1		0.1628
46		H		-0.5421		-1.2937		2.1873		H		1		UNL1		0.1602
47		H		-1.3185		0.8467		2.5506		H		1		UNL1		0.1912
48		H		-1.1263		2.3102		1.5720		H		1		UNL1		0.2025
49		H		0.6841		0.5965		-0.1355		H		1		UNL1		0.3628
50		H		3.3260		1.3472		2.3221		H		1		UNL1		0.1988
51		H		5.7507		1.0939		1.8130		H		1		UNL1		0.1784
52		H		7.0623		-2.1839		-0.4951		H		1		UNL1		0.3463
53		H		7.4719		-1.5444		1.0150		H		1		UNL1		0.3481
54		H		4.7703		-0.3323		-2.1143		H		1		UNL1		0.1734
55		H		1.3630		-0.9574		-1.6097		H		1		UNL1		0.1704
56		H		1.4653		0.6973		-2.2374		H		1		UNL1		0.1701
57		H		2.5560		-0.5468		-2.8445		H		1		UNL1		0.1799
58		H		-2.7898		2.5263		-1.2113		H		1		UNL1		0.1137
@<TRIPOS>BOND
1		43		9		1
2		57		32		1
3		9		8		1
4		56		32		1
5		54		30		1
6		29		26		2
7		32		55		1
8		32		31		1
9		42		8		1
10		8		7		1
11		8		10		1
12		40		6		1
13		58		33		1
14		44		11		1
15		30		31		ar
16		30		25		ar
17		34		1		1
18		31		22		ar
19		7		33		ar
20		7		5		ar
21		33		2		ar
22		35		1		1
23		26		25		1
24		26		27		1
25		26		28		2
26		52		27		1
27		11		10		ar
28		11		12		ar
29		10		16		ar
30		5		6		1
31		5		4		ar
32		6		41		1
33		6		39		1
34		1		2		1
35		1		36		1
36		2		3		ar
37		25		24		ar
38		49		21		1
39		27		53		1
40		4		3		ar
41		4		38		1
42		3		37		1
43		22		21		1
44		22		23		ar
45		13		12		1
46		12		14		ar
47		17		16		1
48		17		18		1
49		16		15		ar
50		21		19		1
51		24		23		ar
52		24		51		1
53		23		50		1
54		14		15		ar
55		14		45		1
56		15		46		1
57		48		18		1
58		18		19		1
59		18		47		1
60		19		20		2

