@<TRIPOS>MOLECULE
MXD-2011-BMC-4601-10c
 56 59 0 0 0
SMALL
MULLIKEN_CHARGES
****
Gaussian 16 #p B3LYP/6-31G* opt
@<TRIPOS>ATOM
1		C		3.8219		-3.5084		0.2336		C.3		1		UNL1		-0.5680
2		C		4.1718		-2.0454		0.0833		C.ar		1		UNL1		0.1558
3		C		5.5040		-1.6575		-0.0543		C.ar		1		UNL1		-0.2281
4		C		5.8469		-0.3132		-0.2052		C.ar		1		UNL1		-0.1420
5		S		7.5769		0.1473		-0.3482		S.O2		1		UNL1		1.1632
6		N		8.1238		0.5223		1.2033		N.3		1		UNL1		-0.7853
7		O		8.3159		-1.0520		-0.7407		O.2		1		UNL1		-0.5283
8		O		7.6361		1.4031		-1.0935		O.2		1		UNL1		-0.5249
9		C		4.8583		0.6695		-0.2368		C.ar		1		UNL1		-0.1721
10		C		3.5217		0.3090		-0.0981		C.ar		1		UNL1		-0.1530
11		C		3.1732		-1.0413		0.0683		C.ar		1		UNL1		0.2946
12		N		1.8333		-1.4541		0.2143		N.am		1		UNL1		-0.7343
13		C		0.6923		-0.6812		0.2948		C.2		1		UNL1		0.6182
14		O		0.6545		0.5303		0.2034		O.2		1		UNL1		-0.4666
15		C		-0.5693		-1.5088		0.5894		C.3		1		UNL1		-0.1278
16		O		-1.6242		-0.9383		-0.1499		O.3		1		UNL1		-0.5092
17		C		-2.9148		-1.3234		0.1096		C.ar		1		UNL1		0.3502
18		C		-3.2387		-2.4116		0.9558		C.ar		1		UNL1		-0.1915
19		C		-4.5563		-2.7620		1.1408		C.ar		1		UNL1		-0.1973
20		C		-5.6044		-2.0685		0.4884		C.ar		1		UNL1		0.1358
21		C		-6.9651		-2.4329		0.6776		C.ar		1		UNL1		-0.1928
22		C		-7.9722		-1.7552		0.0331		C.ar		1		UNL1		-0.1335
23		C		-7.6533		-0.6815		-0.8336		C.ar		1		UNL1		-0.1345
24		C		-6.3467		-0.3022		-1.0407		C.ar		1		UNL1		-0.1892
25		C		-5.2773		-0.9792		-0.3870		C.ar		1		UNL1		0.1034
26		C		-3.9067		-0.6013		-0.5438		C.ar		1		UNL1		-0.0676
27		C		-3.5285		0.5291		-1.4732		C.2		1		UNL1		0.3316
28		O		-3.8291		0.4701		-2.6578		O.2		1		UNL1		-0.4596
29		C		-2.8375		1.7400		-0.9243		C.ar		1		UNL1		0.1077
30		C		-2.3207		2.6768		-1.8310		C.ar		1		UNL1		-0.1490
31		C		-1.7005		3.8314		-1.3652		C.ar		1		UNL1		-0.1307
32		C		-1.5978		4.0756		0.0066		C.ar		1		UNL1		-0.1165
33		C		-2.1243		3.1433		0.8992		C.ar		1		UNL1		-0.0661
34		CL		-2.0103		3.4463		2.6307		Cl		1		UNL1		-0.0293
35		C		-2.7394		1.9786		0.4524		C.ar		1		UNL1		-0.1579
36		H		4.7259		-4.1224		0.2238		H		1		UNL1		0.1837
37		H		3.3005		-3.7157		1.1787		H		1		UNL1		0.1634
38		H		3.1831		-3.8679		-0.5855		H		1		UNL1		0.1709
39		H		6.2863		-2.4101		-0.0679		H		1		UNL1		0.1741
40		H		8.0964		-0.2785		1.8296		H		1		UNL1		0.3462
41		H		7.6563		1.3368		1.5936		H		1		UNL1		0.3485
42		H		5.1278		1.7087		-0.3946		H		1		UNL1		0.1789
43		H		2.7417		1.0561		-0.1274		H		1		UNL1		0.2036
44		H		1.6930		-2.4533		0.2573		H		1		UNL1		0.3408
45		H		-0.4349		-2.5691		0.3267		H		1		UNL1		0.1449
46		H		-0.7633		-1.4488		1.6708		H		1		UNL1		0.1792
47		H		-2.4577		-2.9772		1.4510		H		1		UNL1		0.1356
48		H		-4.8050		-3.5948		1.7939		H		1		UNL1		0.1392
49		H		-7.1929		-3.2609		1.3449		H		1		UNL1		0.1314
50		H		-9.0097		-2.0400		0.1832		H		1		UNL1		0.1334
51		H		-8.4518		-0.1520		-1.3462		H		1		UNL1		0.1365
52		H		-6.1222		0.5093		-1.7226		H		1		UNL1		0.1580
53		H		-2.4160		2.4767		-2.8926		H		1		UNL1		0.1650
54		H		-1.2923		4.5527		-2.0675		H		1		UNL1		0.1448
55		H		-1.1182		4.9743		0.3800		H		1		UNL1		0.1572
56		H		-3.1465		1.2723		1.1665		H		1		UNL1		0.1592
@<TRIPOS>BOND
1		53		30		1
2		28		27		2
3		54		31		1
4		30		31		ar
5		30		29		ar
6		52		24		1
7		27		29		1
8		27		26		1
9		31		32		ar
10		51		23		1
11		8		5		2
12		24		23		ar
13		24		25		ar
14		29		35		ar
15		23		22		ar
16		7		5		2
17		38		1		1
18		26		25		ar
19		26		17		ar
20		42		9		1
21		25		20		ar
22		5		4		1
23		5		6		1
24		9		4		ar
25		9		10		ar
26		4		3		ar
27		16		17		1
28		16		15		1
29		43		10		1
30		10		11		ar
31		39		3		1
32		3		2		ar
33		32		55		1
34		32		33		ar
35		22		50		1
36		22		21		ar
37		11		2		ar
38		11		12		1
39		2		1		1
40		17		18		ar
41		14		13		2
42		12		44		1
43		12		13		1
44		36		1		1
45		1		37		1
46		13		15		1
47		45		15		1
48		35		33		ar
49		35		56		1
50		20		21		ar
51		20		19		ar
52		15		46		1
53		21		49		1
54		33		34		1
55		18		19		ar
56		18		47		1
57		19		48		1
58		6		41		1
59		6		40		1

