@<TRIPOS>MOLECULE
MXD-2011-BMC-4601-10e
 62 65 0 0 0
SMALL
MULLIKEN_CHARGES
****
Gaussian 16 #p B3LYP/6-31G* opt
@<TRIPOS>ATOM
1		C		-1.7003		5.3401		-0.8176		C.3		1		UNL1		-0.5324
2		C		-2.1842		4.1533		-0.0179		C.ar		1		UNL1		0.1756
3		C		-2.9069		4.3253		1.1707		C.ar		1		UNL1		-0.1606
4		C		-3.3466		3.2286		1.9063		C.ar		1		UNL1		-0.1890
5		C		-3.1176		1.9093		1.4912		C.ar		1		UNL1		0.1510
6		C		-3.6005		0.7785		2.3738		C.3		1		UNL1		-0.5439
7		C		-2.3991		1.7276		0.2872		C.ar		1		UNL1		0.0160
8		C		-2.0293		0.3940		-0.2906		C.2		1		UNL1		0.3129
9		O		-0.9577		0.2661		-0.8809		O.2		1		UNL1		-0.4586
10		C		-2.9538		-0.7910		-0.1946		C.ar		1		UNL1		-0.0701
11		C		-2.4501		-1.9817		0.3214		C.ar		1		UNL1		0.3648
12		O		-1.1763		-1.9588		0.8254		O.3		1		UNL1		-0.5472
13		C		-0.4167		-3.1630		0.8516		C.3		1		UNL1		-0.1260
14		C		1.0846		-2.8849		0.7274		C.2		1		UNL1		0.5785
15		O		1.8624		-3.8007		0.9551		O.2		1		UNL1		-0.5026
16		N		1.4169		-1.6174		0.3370		N.am		1		UNL1		-0.7357
17		C		2.7224		-1.1193		0.1253		C.ar		1		UNL1		0.2768
18		C		3.7764		-1.9757		-0.2311		C.ar		1		UNL1		-0.1355
19		C		5.0496		-1.4648		-0.4591		C.ar		1		UNL1		-0.1756
20		C		5.2695		-0.0937		-0.3292		C.ar		1		UNL1		-0.1420
21		S		6.9173		0.5734		-0.5737		S.O2		1		UNL1		1.1594
22		N		7.7188		0.4688		0.9115		N.3		1		UNL1		-0.7855
23		O		6.7810		2.0054		-0.8392		O.2		1		UNL1		-0.5306
24		O		7.6366		-0.3359		-1.4648		O.2		1		UNL1		-0.5287
25		C		4.2259		0.7633		0.0217		C.ar		1		UNL1		-0.2302
26		C		2.9413		0.2717		0.2608		C.ar		1		UNL1		0.1606
27		C		1.8340		1.2119		0.6708		C.3		1		UNL1		-0.5711
28		C		-3.2559		-3.1422		0.4104		C.ar		1		UNL1		-0.1837
29		C		-4.5490		-3.1138		-0.0533		C.ar		1		UNL1		-0.1953
30		C		-5.1034		-1.9393		-0.6202		C.ar		1		UNL1		0.1398
31		C		-6.4317		-1.9213		-1.1229		C.ar		1		UNL1		-0.1932
32		C		-6.9587		-0.7840		-1.6880		C.ar		1		UNL1		-0.1335
33		C		-6.1647		0.3833		-1.7780		C.ar		1		UNL1		-0.1357
34		C		-4.8733		0.4008		-1.2993		C.ar		1		UNL1		-0.1963
35		C		-4.2982		-0.7522		-0.6915		C.ar		1		UNL1		0.0967
36		C		-1.9309		2.8458		-0.4280		C.ar		1		UNL1		-0.2194
37		H		-1.1141		6.0281		-0.1966		H		1		UNL1		0.1661
38		H		-1.0710		5.0265		-1.6558		H		1		UNL1		0.1648
39		H		-2.5404		5.9144		-1.2283		H		1		UNL1		0.1664
40		H		-3.1188		5.3296		1.5316		H		1		UNL1		0.1324
41		H		-3.8796		3.3961		2.8392		H		1		UNL1		0.1311
42		H		-4.4796		0.2778		1.9532		H		1		UNL1		0.1803
43		H		-2.8325		0.0135		2.5234		H		1		UNL1		0.1715
44		H		-3.8808		1.1670		3.3578		H		1		UNL1		0.1574
45		H		-0.5703		-3.7096		1.7890		H		1		UNL1		0.1810
46		H		-0.6980		-3.8197		0.0193		H		1		UNL1		0.1845
47		H		0.6368		-0.9872		0.1703		H		1		UNL1		0.4030
48		H		3.5890		-3.0363		-0.3229		H		1		UNL1		0.1818
49		H		5.8580		-2.1215		-0.7634		H		1		UNL1		0.1735
50		H		7.2709		1.0378		1.6262		H		1		UNL1		0.3443
51		H		7.8364		-0.4959		1.2126		H		1		UNL1		0.3462
52		H		4.4161		1.8294		0.0987		H		1		UNL1		0.1686
53		H		2.2214		2.2269		0.7954		H		1		UNL1		0.1607
54		H		1.0229		1.2494		-0.0658		H		1		UNL1		0.2049
55		H		1.3849		0.9047		1.6243		H		1		UNL1		0.1622
56		H		-2.8575		-4.0449		0.8602		H		1		UNL1		0.1515
57		H		-5.1673		-4.0052		0.0156		H		1		UNL1		0.1449
58		H		-7.0227		-2.8316		-1.0569		H		1		UNL1		0.1362
59		H		-7.9748		-0.7801		-2.0716		H		1		UNL1		0.1369
60		H		-6.5764		1.2782		-2.2365		H		1		UNL1		0.1382
61		H		-4.2856		1.3062		-1.3939		H		1		UNL1		0.1494
62		H		-1.3616		2.6642		-1.3349		H		1		UNL1		0.1528
@<TRIPOS>BOND
1		60		33		1
2		59		32		1
3		33		32		ar
4		33		34		ar
5		32		31		ar
6		38		1		1
7		24		21		2
8		61		34		1
9		62		36		1
10		34		35		ar
11		39		1		1
12		31		58		1
13		31		30		ar
14		9		8		2
15		23		21		2
16		1		37		1
17		1		2		1
18		49		19		1
19		35		30		ar
20		35		10		ar
21		30		29		ar
22		21		20		1
23		21		22		1
24		19		20		ar
25		19		18		ar
26		36		2		ar
27		36		7		ar
28		20		25		ar
29		48		18		1
30		8		10		1
31		8		7		1
32		18		17		ar
33		10		11		ar
34		54		27		1
35		29		57		1
36		29		28		ar
37		2		3		ar
38		46		13		1
39		25		52		1
40		25		26		ar
41		17		26		ar
42		17		16		1
43		47		16		1
44		26		27		1
45		7		5		ar
46		11		28		ar
47		11		12		1
48		16		14		1
49		28		56		1
50		27		53		1
51		27		55		1
52		14		13		1
53		14		15		2
54		12		13		1
55		13		45		1
56		22		51		1
57		22		50		1
58		3		40		1
59		3		4		ar
60		5		4		ar
61		5		6		1
62		4		41		1
63		42		6		1
64		6		43		1
65		6		44		1

