@<TRIPOS>MOLECULE
MXD-2011-BMC-4601-10f
 62 65 0 0 0
SMALL
MULLIKEN_CHARGES
****
Gaussian 16 #p B3LYP/6-31G* opt
@<TRIPOS>ATOM
1		C		2.9791		5.8030		-1.1065		C.3		1		UNL1		-0.5334
2		C		2.7280		4.3694		-0.7067		C.ar		1		UNL1		0.1992
3		C		2.0886		4.0595		0.5013		C.ar		1		UNL1		-0.1880
4		C		1.8822		2.7357		0.8613		C.ar		1		UNL1		-0.1538
5		C		2.3265		1.6747		0.0502		C.ar		1		UNL1		0.0100
6		C		2.0295		0.3002		0.5651		C.2		1		UNL1		0.3089
7		O		1.0328		0.1090		1.2586		O.2		1		UNL1		-0.4582
8		C		2.9480		-0.8638		0.2892		C.ar		1		UNL1		-0.0714
9		C		2.4172		-1.9958		-0.3197		C.ar		1		UNL1		0.3704
10		O		1.1198		-1.9180		-0.7576		O.3		1		UNL1		-0.5518
11		C		0.3797		-3.1177		-0.9524		C.3		1		UNL1		-0.1230
12		C		-1.1296		-2.8638		-0.8890		C.2		1		UNL1		0.5840
13		O		-1.8780		-3.7721		-1.2208		O.2		1		UNL1		-0.4999
14		N		-1.4972		-1.6272		-0.4355		N.am		1		UNL1		-0.7359
15		C		-2.8054		-1.1254		-0.2652		C.ar		1		UNL1		0.2876
16		C		-3.9223		-1.9752		-0.2491		C.ar		1		UNL1		-0.1495
17		C		-5.1979		-1.4514		-0.0597		C.ar		1		UNL1		-0.1677
18		C		-5.3529		-0.0795		0.1194		C.ar		1		UNL1		-0.1267
19		S		-6.9825		0.6050		0.3731		S.O2		1		UNL1		1.1617
20		N		-7.0638		0.8058		2.0637		N.3		1		UNL1		-0.8136
21		O		-7.9606		-0.4131		-0.0276		O.2		1		UNL1		-0.5296
22		O		-7.0119		1.9651		-0.1758		O.2		1		UNL1		-0.5475
23		C		-4.2497		0.7742		0.0859		C.ar		1		UNL1		-0.2110
24		C		-2.9637		0.2744		-0.1111		C.ar		1		UNL1		0.1539
25		C		-1.7885		1.2189		-0.1865		C.3		1		UNL1		-0.5774
26		C		3.2133		-3.1419		-0.5578		C.ar		1		UNL1		-0.1862
27		C		4.5274		-3.1566		-0.1545		C.ar		1		UNL1		-0.1970
28		C		5.1123		-2.0413		0.4946		C.ar		1		UNL1		0.1403
29		C		6.4641		-2.0652		0.9305		C.ar		1		UNL1		-0.1932
30		C		7.0192		-0.9837		1.5727		C.ar		1		UNL1		-0.1339
31		C		6.2327		0.1684		1.8104		C.ar		1		UNL1		-0.1357
32		C		4.9192		0.2256		1.4011		C.ar		1		UNL1		-0.1965
33		C		4.3134		-0.8694		0.7198		C.ar		1		UNL1		0.0995
34		C		2.9602		1.9646		-1.1819		C.ar		1		UNL1		0.1602
35		C		3.4084		0.9101		-2.1712		C.3		1		UNL1		-0.5456
36		C		3.1342		3.3111		-1.5263		C.ar		1		UNL1		-0.2511
37		H		3.1658		5.8946		-2.1810		H		1		UNL1		0.1623
38		H		2.1280		6.4440		-0.8518		H		1		UNL1		0.1660
39		H		3.8559		6.2088		-0.5846		H		1		UNL1		0.1719
40		H		1.7472		4.8586		1.1550		H		1		UNL1		0.1316
41		H		1.3756		2.4910		1.7894		H		1		UNL1		0.1587
42		H		0.6226		-3.8552		-0.1774		H		1		UNL1		0.1853
43		H		0.5913		-3.5639		-1.9312		H		1		UNL1		0.1813
44		H		-0.7270		-1.0159		-0.1845		H		1		UNL1		0.3905
45		H		-3.7820		-3.0358		-0.4003		H		1		UNL1		0.1910
46		H		-6.0657		-2.1019		-0.0618		H		1		UNL1		0.1757
47		H		-7.6287		0.0619		2.4704		H		1		UNL1		0.3492
48		H		-7.4847		1.7149		2.2497		H		1		UNL1		0.3540
49		H		-4.3977		1.8441		0.1917		H		1		UNL1		0.1651
50		H		-1.2580		1.1227		-1.1432		H		1		UNL1		0.1642
51		H		-2.1273		2.2551		-0.1023		H		1		UNL1		0.1639
52		H		-1.0517		1.0440		0.6069		H		1		UNL1		0.2042
53		H		2.7926		-3.9998		-1.0699		H		1		UNL1		0.1510
54		H		5.1379		-4.0374		-0.3368		H		1		UNL1		0.1437
55		H		7.0510		-2.9626		0.7495		H		1		UNL1		0.1354
56		H		8.0534		-1.0119		1.9037		H		1		UNL1		0.1358
57		H		6.6691		1.0185		2.3278		H		1		UNL1		0.1371
58		H		4.3368		1.1167		1.6056		H		1		UNL1		0.1481
59		H		3.6355		1.3747		-3.1356		H		1		UNL1		0.1580
60		H		4.3109		0.3897		-1.8329		H		1		UNL1		0.1808
61		H		2.6395		0.1499		-2.3388		H		1		UNL1		0.1728
62		H		3.6006		3.5416		-2.4819		H		1		UNL1		0.1240
@<TRIPOS>BOND
1		59		35		1
2		62		36		1
3		61		35		1
4		37		1		1
5		35		60		1
6		35		34		1
7		43		11		1
8		36		34		ar
9		36		2		ar
10		13		12		2
11		34		5		ar
12		50		25		1
13		1		38		1
14		1		2		1
15		1		39		1
16		53		26		1
17		11		12		1
18		11		10		1
19		11		42		1
20		12		14		1
21		10		9		1
22		2		3		ar
23		26		9		ar
24		26		27		ar
25		14		15		1
26		14		44		1
27		45		16		1
28		54		27		1
29		9		8		ar
30		15		16		ar
31		15		24		ar
32		16		17		ar
33		25		24		1
34		25		51		1
35		25		52		1
36		22		19		2
37		27		28		ar
38		24		23		ar
39		46		17		1
40		17		18		ar
41		21		19		2
42		5		6		1
43		5		4		ar
44		23		18		ar
45		23		49		1
46		18		19		1
47		8		6		1
48		8		33		ar
49		19		20		1
50		28		33		ar
51		28		29		ar
52		3		4		ar
53		3		40		1
54		6		7		2
55		33		32		ar
56		55		29		1
57		4		41		1
58		29		30		ar
59		32		58		1
60		32		31		ar
61		30		31		ar
62		30		56		1
63		31		57		1
64		20		48		1
65		20		47		1

