@<TRIPOS>MOLECULE
MXD-2011-BMC-4704-7p
 52 54 0 0 0
SMALL
MULLIKEN_CHARGES
****
Gaussian 16 #p B3LYP/6-31G* opt
@<TRIPOS>ATOM
1		C		4.1426		-1.3543		-2.9735		C.3		1		UNL1		-0.5677
2		C		4.1945		-0.7123		-1.6058		C.ar		1		UNL1		0.1559
3		C		5.4247		-0.4697		-0.9954		C.ar		1		UNL1		-0.2281
4		C		5.4948		0.1326		0.2613		C.ar		1		UNL1		-0.1419
5		S		7.0983		0.4018		1.0244		S.O2		1		UNL1		1.1633
6		N		7.4079		-0.9245		2.0197		N.3		1		UNL1		-0.7853
7		O		8.1017		0.3332		-0.0373		O.2		1		UNL1		-0.5283
8		O		6.9670		1.5423		1.9288		O.2		1		UNL1		-0.5244
9		C		4.3314		0.5160		0.9274		C.ar		1		UNL1		-0.1721
10		C		3.0912		0.2793		0.3429		C.ar		1		UNL1		-0.1531
11		C		3.0160		-0.3349		-0.9177		C.ar		1		UNL1		0.2949
12		N		1.7813		-0.5890		-1.5507		N.am		1		UNL1		-0.7337
13		C		0.5018		-0.3322		-1.0983		C.2		1		UNL1		0.5981
14		O		0.2160		0.1237		-0.0084		O.2		1		UNL1		-0.4646
15		C		-0.5710		-0.6640		-2.1578		C.3		1		UNL1		-0.1461
16		O		-1.8744		-0.6146		-1.6406		O.3		1		UNL1		-0.4985
17		C		-2.3271		-1.6223		-0.8354		C.ar		1		UNL1		0.3650
18		C		-1.5554		-2.7235		-0.4557		C.ar		1		UNL1		-0.1738
19		C		-2.0947		-3.7245		0.3540		C.ar		1		UNL1		-0.1400
20		C		-3.4112		-3.6179		0.7821		C.ar		1		UNL1		-0.0620
21		CL		-4.1100		-4.8708		1.7992		Cl		1		UNL1		-0.0234
22		C		-4.1877		-2.5212		0.4087		C.ar		1		UNL1		-0.2111
23		C		-3.6634		-1.5101		-0.3964		C.ar		1		UNL1		0.1420
24		C		-4.5564		-0.3372		-0.7745		C.3		1		UNL1		0.0012
25		O		-4.7416		-0.3563		-2.1864		O.3		1		UNL1		-0.6184
26		C		-4.0439		1.0131		-0.2613		C.ar		1		UNL1		0.1276
27		C		-3.5040		1.9553		-1.1387		C.ar		1		UNL1		-0.1680
28		C		-3.0745		3.1832		-0.6410		C.ar		1		UNL1		-0.0651
29		CL		-2.3925		4.3665		-1.7505		Cl		1		UNL1		-0.0197
30		C		-3.1653		3.5045		0.7110		C.ar		1		UNL1		-0.1253
31		C		-3.7077		2.5470		1.5678		C.ar		1		UNL1		-0.0672
32		CL		-3.8454		2.9212		3.2792		Cl		1		UNL1		-0.0113
33		C		-4.1501		1.3127		1.1012		C.ar		1		UNL1		-0.1650
34		H		3.6687		-0.7018		-3.7204		H		1		UNL1		0.1689
35		H		5.1512		-1.5698		-3.3351		H		1		UNL1		0.1844
36		H		3.5925		-2.3059		-2.9654		H		1		UNL1		0.1641
37		H		6.3436		-0.7296		-1.5117		H		1		UNL1		0.1746
38		H		7.4868		-1.7936		1.4977		H		1		UNL1		0.3464
39		H		6.7504		-0.9928		2.7925		H		1		UNL1		0.3489
40		H		4.3928		1.0182		1.8875		H		1		UNL1		0.1798
41		H		2.1796		0.5704		0.8450		H		1		UNL1		0.2029
42		H		1.8486		-0.9839		-2.4790		H		1		UNL1		0.3409
43		H		-0.5409		0.1084		-2.9344		H		1		UNL1		0.1987
44		H		-0.3652		-1.6313		-2.6407		H		1		UNL1		0.1583
45		H		-0.5213		-2.8122		-0.7672		H		1		UNL1		0.1367
46		H		-1.4883		-4.5741		0.6487		H		1		UNL1		0.1579
47		H		-5.2180		-2.4586		0.7445		H		1		UNL1		0.1551
48		H		-5.5217		-0.5169		-0.2762		H		1		UNL1		0.1376
49		H		-5.3934		0.3313		-2.4010		H		1		UNL1		0.3965
50		H		-3.4094		1.7206		-2.1913		H		1		UNL1		0.1627
51		H		-2.8275		4.4633		1.0847		H		1		UNL1		0.1766
52		H		-4.5688		0.5917		1.7962		H		1		UNL1		0.1556
@<TRIPOS>BOND
1		34		1		1
2		35		1		1
3		1		36		1
4		1		2		1
5		43		15		1
6		44		15		1
7		42		12		1
8		49		25		1
9		50		27		1
10		25		24		1
11		15		16		1
12		15		13		1
13		29		28		1
14		16		17		1
15		2		3		ar
16		2		11		ar
17		12		13		1
18		12		11		1
19		37		3		1
20		27		28		ar
21		27		26		ar
22		13		14		2
23		3		4		ar
24		11		10		ar
25		17		18		ar
26		17		23		ar
27		24		23		1
28		24		48		1
29		24		26		1
30		45		18		1
31		28		30		ar
32		18		19		ar
33		23		22		ar
34		26		33		ar
35		7		5		2
36		4		9		ar
37		4		5		1
38		10		41		1
39		10		9		ar
40		19		46		1
41		19		20		ar
42		22		47		1
43		22		20		ar
44		30		51		1
45		30		31		ar
46		20		21		1
47		9		40		1
48		5		8		2
49		5		6		1
50		33		31		ar
51		33		52		1
52		38		6		1
53		31		32		1
54		6		39		1

