@<TRIPOS>MOLECULE
MXD-2011-BMC-4704-7r
 53 55 0 0 0
SMALL
MULLIKEN_CHARGES
****
Gaussian 16 #p B3LYP/6-31G* opt
@<TRIPOS>ATOM
1		C		5.2169		2.8516		-1.2453		C.3		1		UNL1		-0.5698
2		C		5.1722		1.4660		-0.6420		C.ar		1		UNL1		0.1549
3		C		6.3547		0.7592		-0.4309		C.ar		1		UNL1		-0.2128
4		C		6.3318		-0.5175		0.1295		C.ar		1		UNL1		-0.1210
5		S		7.8740		-1.3904		0.3842		S.O2		1		UNL1		1.1697
6		N		8.1334		-2.1770		-1.1001		N.3		1		UNL1		-0.8149
7		O		8.9412		-0.3922		0.5042		O.2		1		UNL1		-0.5405
8		O		7.6346		-2.4128		1.4070		O.2		1		UNL1		-0.5268
9		C		5.1292		-1.1107		0.5031		C.ar		1		UNL1		-0.1632
10		C		3.9338		-0.4268		0.2994		C.ar		1		UNL1		-0.1509
11		C		3.9508		0.8537		-0.2717		C.ar		1		UNL1		0.2913
12		N		2.7648		1.5932		-0.4912		N.am		1		UNL1		-0.7263
13		C		1.4649		1.2471		-0.2425		C.2		1		UNL1		0.6332
14		O		1.0979		0.1600		0.1851		O.2		1		UNL1		-0.4985
15		C		0.4647		2.3888		-0.4942		C.3		1		UNL1		-0.1372
16		O		-0.7597		1.8169		-0.8915		O.3		1		UNL1		-0.5146
17		C		-1.9254		2.2227		-0.2727		C.ar		1		UNL1		0.3073
18		C		-2.1863		3.5599		0.0234		C.ar		1		UNL1		-0.1696
19		C		-3.3893		3.9160		0.6357		C.ar		1		UNL1		-0.1401
20		C		-4.3179		2.9220		0.9263		C.ar		1		UNL1		-0.0632
21		CL		-5.8365		3.3544		1.6993		Cl		1		UNL1		-0.0159
22		C		-4.0655		1.5856		0.6128		C.ar		1		UNL1		-0.1899
23		C		-2.8661		1.2146		0.0037		C.ar		1		UNL1		0.1138
24		C		-2.4826		-0.2447		-0.2816		C.3		1		UNL1		0.0194
25		O		-1.5963		-0.7229		0.7146		O.3		1		UNL1		-0.6667
26		C		-3.6815		-1.1775		-0.3612		C.ar		1		UNL1		0.0910
27		C		-3.8846		-2.1551		0.6167		C.ar		1		UNL1		-0.1518
28		C		-4.9814		-3.0125		0.5193		C.ar		1		UNL1		-0.0748
29		CL		-5.2249		-4.2368		1.7544		Cl		1		UNL1		-0.0040
30		C		-5.8858		-2.9265		-0.5325		C.ar		1		UNL1		-0.1357
31		C		-5.6744		-1.9442		-1.5145		C.ar		1		UNL1		0.1290
32		C		-6.5862		-1.8369		-2.6172		C.1		1		UNL1		0.2425
33		N		-7.3225		-1.7474		-3.5133		N.1		1		UNL1		-0.4763
34		C		-4.5782		-1.0747		-1.4277		C.ar		1		UNL1		-0.1727
35		H		4.6663		2.9091		-2.1948		H		1		UNL1		0.1688
36		H		6.2483		3.1440		-1.4570		H		1		UNL1		0.1872
37		H		4.8019		3.6131		-0.5699		H		1		UNL1		0.1675
38		H		7.3064		1.2120		-0.6895		H		1		UNL1		0.1741
39		H		8.0074		-3.1808		-0.9831		H		1		UNL1		0.3564
40		H		9.0772		-1.9649		-1.4186		H		1		UNL1		0.3589
41		H		5.1255		-2.0927		0.9635		H		1		UNL1		0.1843
42		H		2.9911		-0.8735		0.5802		H		1		UNL1		0.2012
43		H		2.9019		2.5104		-0.8930		H		1		UNL1		0.3455
44		H		0.8319		3.0807		-1.2657		H		1		UNL1		0.1552
45		H		0.3554		2.9511		0.4431		H		1		UNL1		0.1875
46		H		-1.4650		4.3301		-0.2327		H		1		UNL1		0.1401
47		H		-3.6026		4.9530		0.8708		H		1		UNL1		0.1604
48		H		-4.8068		0.8320		0.8526		H		1		UNL1		0.1684
49		H		-1.9895		-0.2657		-1.2631		H		1		UNL1		0.1518
50		H		-0.7020		-0.3761		0.5209		H		1		UNL1		0.4451
51		H		-3.1787		-2.2451		1.4327		H		1		UNL1		0.1957
52		H		-6.7312		-3.6010		-0.5986		H		1		UNL1		0.1780
53		H		-4.4332		-0.3226		-2.1973		H		1		UNL1		0.1588
@<TRIPOS>BOND
1		33		32		3
2		32		31		1
3		53		34		1
4		35		1		1
5		31		34		ar
6		31		30		ar
7		36		1		1
8		34		26		ar
9		40		6		1
10		44		15		1
11		49		24		1
12		1		2		1
13		1		37		1
14		6		39		1
15		6		5		1
16		43		12		1
17		16		15		1
18		16		17		1
19		38		3		1
20		2		3		ar
21		2		11		ar
22		52		30		1
23		30		28		ar
24		15		13		1
25		15		45		1
26		12		11		1
27		12		13		1
28		3		4		ar
29		26		24		1
30		26		27		ar
31		24		23		1
32		24		25		1
33		17		23		ar
34		17		18		ar
35		11		10		ar
36		13		14		2
37		46		18		1
38		23		22		ar
39		18		19		ar
40		4		5		1
41		4		9		ar
42		10		9		ar
43		10		42		1
44		5		7		2
45		5		8		2
46		9		41		1
47		28		27		ar
48		28		29		1
49		50		25		1
50		22		48		1
51		22		20		ar
52		27		51		1
53		19		47		1
54		19		20		ar
55		20		21		1

