@<TRIPOS>MOLECULE
MXD-2011-CMC-2225-9i
 38 40 0 0 0
SMALL
MULLIKEN_CHARGES
****
Gaussian 16 #p B3LYP/6-31G* opt
@<TRIPOS>ATOM
1		N		-9.0896		-0.9232		-0.1273		N.1		1		UNL1		-0.4875
2		C		-7.9566		-0.6551		-0.1404		C.1		1		UNL1		0.2258
3		C		-6.5650		-0.3242		-0.1575		C.ar		1		UNL1		0.1299
4		C		-6.1200		0.8588		-0.7744		C.ar		1		UNL1		-0.1408
5		C		-4.7716		1.1726		-0.7872		C.ar		1		UNL1		-0.2057
6		C		-3.8209		0.3204		-0.1869		C.ar		1		UNL1		0.3843
7		N		-2.4892		0.7237		-0.2537		N.pl3		1		UNL1		-0.7683
8		C		-1.3158		0.1624		0.2137		C.ar		1		UNL1		0.6921
9		N		-1.3480		-1.0032		0.8797		N.ar		1		UNL1		-0.4787
10		C		-0.1557		-1.4492		1.2889		C.ar		1		UNL1		0.0696
11		C		1.0371		-0.7786		1.0536		C.ar		1		UNL1		-0.2158
12		C		0.9532		0.4328		0.3408		C.ar		1		UNL1		0.3230
13		C		2.1642		1.2399		0.0452		C.2		1		UNL1		0.1626
14		N		1.9731		2.4564		-0.3577		N.2		1		UNL1		-0.2626
15		N		3.0251		3.2628		-0.6010		N.pl3		1		UNL1		-0.5410
16		C		3.5219		0.6319		0.2296		C.ar		1		UNL1		0.0189
17		C		4.4181		1.1506		1.1779		C.ar		1		UNL1		-0.1551
18		C		5.6852		0.5879		1.3334		C.ar		1		UNL1		-0.1315
19		C		6.0840		-0.4938		0.5474		C.ar		1		UNL1		-0.1249
20		C		5.1925		-1.0018		-0.3972		C.ar		1		UNL1		-0.0704
21		CL		5.6802		-2.3612		-1.3996		Cl		1		UNL1		-0.0117
22		C		3.9222		-0.4543		-0.5648		C.ar		1		UNL1		-0.1543
23		N		-0.2303		0.8953		-0.0812		N.ar		1		UNL1		-0.5471
24		C		-4.2648		-0.8643		0.4313		C.ar		1		UNL1		-0.1608
25		C		-5.6190		-1.1733		0.4406		C.ar		1		UNL1		-0.1536
26		H		-6.8377		1.5259		-1.2410		H		1		UNL1		0.1557
27		H		-4.4397		2.0904		-1.2672		H		1		UNL1		0.1357
28		H		-2.3105		1.5995		-0.7291		H		1		UNL1		0.3479
29		H		-0.1636		-2.3909		1.8354		H		1		UNL1		0.1525
30		H		1.9795		-1.1697		1.4144		H		1		UNL1		0.1545
31		H		3.9195		2.8293		-0.8316		H		1		UNL1		0.3225
32		H		2.7662		4.0332		-1.2033		H		1		UNL1		0.3481
33		H		4.1154		1.9915		1.7946		H		1		UNL1		0.1610
34		H		6.3695		0.9905		2.0749		H		1		UNL1		0.1506
35		H		7.0671		-0.9374		0.6623		H		1		UNL1		0.1629
36		H		3.2467		-0.8695		-1.3054		H		1		UNL1		0.1681
37		H		-3.5434		-1.5222		0.8938		H		1		UNL1		0.1881
38		H		-5.9533		-2.0885		0.9192		H		1		UNL1		0.1560
@<TRIPOS>BOND
1		21		20		1
2		36		22		1
3		27		5		1
4		26		4		1
5		32		15		1
6		31		15		1
7		5		4		ar
8		5		6		ar
9		4		3		ar
10		28		7		1
11		15		14		1
12		22		20		ar
13		22		16		ar
14		20		19		ar
15		14		13		2
16		7		6		1
17		7		8		1
18		6		24		ar
19		3		2		1
20		3		25		ar
21		2		1		3
22		23		8		ar
23		23		12		ar
24		13		16		1
25		13		12		1
26		8		9		ar
27		16		17		ar
28		12		11		ar
29		24		25		ar
30		24		37		1
31		25		38		1
32		19		35		1
33		19		18		ar
34		9		10		ar
35		11		10		ar
36		11		30		1
37		17		18		ar
38		17		33		1
39		10		29		1
40		18		34		1

