@<TRIPOS>MOLECULE
MXD-2011-BMC-4704-7l
 58 60 0 0 0
SMALL
MULLIKEN_CHARGES
****
Gaussian 16 #p B3LYP/6-31G* opt
@<TRIPOS>ATOM
1		C		4.6408		-4.4976		-0.0081		C.3		1		UNL1		-0.5311
2		C		4.9264		-3.0339		0.2407		C.ar		1		UNL1		0.1839
3		C		6.1756		-2.4854		-0.0650		C.ar		1		UNL1		-0.2326
4		C		6.4543		-1.1274		0.1383		C.ar		1		UNL1		0.1824
5		C		7.8263		-0.5685		-0.1621		C.3		1		UNL1		-0.5295
6		C		5.4445		-0.3078		0.6501		C.ar		1		UNL1		-0.2248
7		C		4.1872		-0.8310		0.9682		C.ar		1		UNL1		0.1970
8		C		3.1003		0.0728		1.5338		C.3		1		UNL1		0.0002
9		O		3.6517		0.7517		2.6619		O.3		1		UNL1		-0.6197
10		C		2.5748		1.0622		0.4898		C.ar		1		UNL1		0.0724
11		C		3.0073		2.3885		0.4863		C.ar		1		UNL1		-0.2116
12		C		2.5495		3.2800		-0.4841		C.ar		1		UNL1		-0.0591
13		CL		3.1175		4.9444		-0.4635		Cl		1		UNL1		-0.0198
14		C		1.6508		2.8713		-1.4626		C.ar		1		UNL1		-0.1435
15		C		1.2017		1.5486		-1.4656		C.ar		1		UNL1		-0.1787
16		C		1.6639		0.6518		-0.5010		C.ar		1		UNL1		0.3201
17		O		1.2489		-0.6657		-0.4267		O.3		1		UNL1		-0.5468
18		C		0.7308		-1.2882		-1.5987		C.3		1		UNL1		-0.1419
19		C		-0.7897		-1.1621		-1.7739		C.2		1		UNL1		0.5803
20		O		-1.3023		-1.4441		-2.8463		O.2		1		UNL1		-0.4921
21		N		-1.4436		-0.7719		-0.6335		N.am		1		UNL1		-0.7277
22		C		-2.8213		-0.5830		-0.4177		C.ar		1		UNL1		0.2963
23		C		-3.7685		-0.8126		-1.4287		C.ar		1		UNL1		-0.1551
24		C		-5.1212		-0.6123		-1.1722		C.ar		1		UNL1		-0.1725
25		C		-5.5294		-0.1918		0.0932		C.ar		1		UNL1		-0.1424
26		S		-7.2761		0.0332		0.4440		S.O2		1		UNL1		1.1626
27		N		-7.8847		-1.4635		0.9316		N.3		1		UNL1		-0.7852
28		O		-7.3773		0.8949		1.6212		O.2		1		UNL1		-0.5284
29		O		-7.9434		0.3281		-0.8226		O.2		1		UNL1		-0.5255
30		C		-4.5903		0.0482		1.0975		C.ar		1		UNL1		-0.2288
31		C		-3.2285		-0.1390		0.8637		C.ar		1		UNL1		0.1571
32		C		-2.2237		0.1426		1.9569		C.3		1		UNL1		-0.5678
33		C		3.9397		-2.1897		0.7651		C.ar		1		UNL1		-0.2461
34		H		4.2809		-4.6671		-1.0321		H		1		UNL1		0.1623
35		H		3.8723		-4.8776		0.6737		H		1		UNL1		0.1549
36		H		5.5397		-5.1095		0.1226		H		1		UNL1		0.1600
37		H		6.9542		-3.1313		-0.4678		H		1		UNL1		0.1150
38		H		8.4999		-0.6879		0.6970		H		1		UNL1		0.1680
39		H		8.2914		-1.0802		-1.0117		H		1		UNL1		0.1561
40		H		7.7815		0.5008		-0.3933		H		1		UNL1		0.1591
41		H		5.6427		0.7473		0.8171		H		1		UNL1		0.1325
42		H		2.2646		-0.5660		1.8509		H		1		UNL1		0.1307
43		H		2.9466		1.2965		3.0487		H		1		UNL1		0.3929
44		H		3.7109		2.7154		1.2434		H		1		UNL1		0.1691
45		H		1.2940		3.5716		-2.2099		H		1		UNL1		0.1645
46		H		0.4856		1.2385		-2.2190		H		1		UNL1		0.1614
47		H		0.9707		-2.3523		-1.5030		H		1		UNL1		0.1989
48		H		1.2151		-0.9122		-2.5045		H		1		UNL1		0.1921
49		H		-0.8276		-0.5841		0.1475		H		1		UNL1		0.3629
50		H		-3.4316		-1.1346		-2.4041		H		1		UNL1		0.1992
51		H		-5.8532		-0.7605		-1.9595		H		1		UNL1		0.1782
52		H		-7.4628		-1.7908		1.7970		H		1		UNL1		0.3461
53		H		-7.8407		-2.1596		0.1913		H		1		UNL1		0.3479
54		H		-4.9268		0.4098		2.0642		H		1		UNL1		0.1736
55		H		-1.5032		0.9181		1.6629		H		1		UNL1		0.1739
56		H		-2.7275		0.4962		2.8601		H		1		UNL1		0.1804
57		H		-1.6511		-0.7535		2.2343		H		1		UNL1		0.1664
58		H		2.9646		-2.5992		1.0202		H		1		UNL1		0.1123
@<TRIPOS>BOND
1		20		19		2
2		48		18		1
3		50		23		1
4		46		15		1
5		45		14		1
6		51		24		1
7		19		18		1
8		19		21		1
9		18		47		1
10		18		17		1
11		15		14		ar
12		15		16		ar
13		14		12		ar
14		23		24		ar
15		23		22		ar
16		24		25		ar
17		34		1		1
18		39		5		1
19		29		26		2
20		21		22		1
21		21		49		1
22		16		17		1
23		16		10		ar
24		12		13		1
25		12		11		ar
26		37		3		1
27		22		31		ar
28		40		5		1
29		5		4		1
30		5		38		1
31		3		4		ar
32		3		2		ar
33		1		36		1
34		1		2		1
35		1		35		1
36		25		26		1
37		25		30		ar
38		4		6		ar
39		53		27		1
40		2		33		ar
41		26		27		1
42		26		28		2
43		11		10		ar
44		11		44		1
45		10		8		1
46		6		41		1
47		6		7		ar
48		33		7		ar
49		33		58		1
50		31		30		ar
51		31		32		1
52		27		52		1
53		7		8		1
54		30		54		1
55		8		42		1
56		8		9		1
57		55		32		1
58		32		57		1
59		32		56		1
60		9		43		1

