@<TRIPOS>MOLECULE
MXD-2011-BMC-4601-10m
 56 59 0 0 0
SMALL
MULLIKEN_CHARGES
****
Gaussian 16 #p B3LYP/6-31G* opt
@<TRIPOS>ATOM
1		C		2.5964		-1.4059		1.6924		C.3		1		UNL1		-0.5681
2		C		3.6138		-0.8427		0.7284		C.ar		1		UNL1		0.1500
3		C		4.7790		-0.2489		1.2096		C.ar		1		UNL1		-0.2115
4		C		5.7422		0.2528		0.3335		C.ar		1		UNL1		-0.1247
5		S		7.2206		1.0072		0.9944		S.O2		1		UNL1		1.1638
6		N		6.7271		2.5978		1.3520		N.3		1		UNL1		-0.8144
7		O		8.2119		1.0609		-0.0861		O.2		1		UNL1		-0.5301
8		O		7.5163		0.3899		2.2916		O.2		1		UNL1		-0.5451
9		C		5.5700		0.1579		-1.0446		C.ar		1		UNL1		-0.1665
10		C		4.4131		-0.4277		-1.5510		C.ar		1		UNL1		-0.1564
11		C		3.4328		-0.9192		-0.6751		C.ar		1		UNL1		0.2914
12		N		2.2417		-1.5087		-1.1489		N.am		1		UNL1		-0.7265
13		C		1.8674		-1.7621		-2.4428		C.2		1		UNL1		0.5880
14		O		2.5253		-1.5410		-3.4491		O.2		1		UNL1		-0.4966
15		C		0.4968		-2.4466		-2.5672		C.3		1		UNL1		-0.1470
16		O		-0.4003		-2.1574		-1.5021		O.3		1		UNL1		-0.5410
17		C		-0.9976		-0.9201		-1.4367		C.ar		1		UNL1		0.3504
18		C		-0.8741		0.0622		-2.4495		C.ar		1		UNL1		-0.1877
19		C		-1.5299		1.2643		-2.3155		C.ar		1		UNL1		-0.1965
20		C		-2.3280		1.5486		-1.1799		C.ar		1		UNL1		0.1402
21		C		-2.9956		2.7945		-1.0377		C.ar		1		UNL1		-0.2206
22		C		-3.7436		3.0473		0.0846		C.ar		1		UNL1		0.0799
23		BR		-4.6437		4.7213		0.2787		Br		1		UNL1		-0.1218
24		C		-3.8614		2.0883		1.1173		C.ar		1		UNL1		-0.1494
25		C		-3.2240		0.8754		0.9994		C.ar		1		UNL1		-0.2004
26		C		-2.4449		0.5577		-0.1500		C.ar		1		UNL1		0.1206
27		C		-1.7661		-0.6862		-0.3043		C.ar		1		UNL1		-0.0907
28		C		-1.7685		-1.7335		0.7880		C.2		1		UNL1		0.3367
29		O		-0.7605		-1.9039		1.4613		O.2		1		UNL1		-0.4552
30		C		-2.9952		-2.5540		1.0208		C.ar		1		UNL1		0.0801
31		C		-3.0192		-3.4298		2.1186		C.ar		1		UNL1		-0.1548
32		C		-4.1378		-4.2237		2.3544		C.ar		1		UNL1		-0.1346
33		C		-5.2419		-4.1620		1.4996		C.ar		1		UNL1		-0.1847
34		C		-5.1983		-3.2927		0.4148		C.ar		1		UNL1		0.3858
35		F		-6.2583		-3.2325		-0.4157		F		1		UNL1		-0.2921
36		C		-4.0990		-2.4849		0.1582		C.ar		1		UNL1		-0.2453
37		H		1.6018		-0.9579		1.5801		H		1		UNL1		0.1950
38		H		2.4711		-2.4896		1.5644		H		1		UNL1		0.1691
39		H		2.9158		-1.2370		2.7242		H		1		UNL1		0.1698
40		H		4.9480		-0.1924		2.2801		H		1		UNL1		0.1677
41		H		7.0645		2.8306		2.2846		H		1		UNL1		0.3554
42		H		7.1133		3.2390		0.6611		H		1		UNL1		0.3509
43		H		6.3388		0.5248		-1.7157		H		1		UNL1		0.1773
44		H		4.2633		-0.5176		-2.6173		H		1		UNL1		0.1948
45		H		1.5508		-1.7553		-0.4486		H		1		UNL1		0.3732
46		H		0.0788		-2.1988		-3.5468		H		1		UNL1		0.1852
47		H		0.6412		-3.5309		-2.5268		H		1		UNL1		0.1988
48		H		-0.2562		-0.1147		-3.3219		H		1		UNL1		0.1685
49		H		-1.4315		2.0189		-3.0912		H		1		UNL1		0.1512
50		H		-2.9040		3.5404		-1.8206		H		1		UNL1		0.1586
51		H		-4.4520		2.3185		1.9972		H		1		UNL1		0.1602
52		H		-3.3168		0.1516		1.8026		H		1		UNL1		0.1526
53		H		-2.1517		-3.4710		2.7680		H		1		UNL1		0.1678
54		H		-4.1571		-4.8984		3.2052		H		1		UNL1		0.1518
55		H		-6.1250		-4.7719		1.6597		H		1		UNL1		0.1594
56		H		-4.1094		-1.8233		-0.7005		H		1		UNL1		0.1674
@<TRIPOS>BOND
1		46		15		1
2		14		13		2
3		48		18		1
4		49		19		1
5		44		10		1
6		15		47		1
7		15		13		1
8		15		16		1
9		18		19		ar
10		18		17		ar
11		13		12		1
12		19		20		ar
13		50		21		1
14		43		9		1
15		10		9		ar
16		10		11		ar
17		16		17		1
18		17		27		ar
19		20		21		ar
20		20		26		ar
21		12		11		1
22		12		45		1
23		9		4		ar
24		21		22		ar
25		56		36		1
26		11		2		ar
27		35		34		1
28		27		26		ar
29		27		28		1
30		26		25		ar
31		7		5		2
32		22		23		1
33		22		24		ar
34		36		34		ar
35		36		30		ar
36		4		5		1
37		4		3		ar
38		34		33		ar
39		42		6		1
40		2		3		ar
41		2		1		1
42		28		30		1
43		28		29		2
44		5		6		1
45		5		8		2
46		25		24		ar
47		25		52		1
48		30		31		ar
49		24		51		1
50		3		40		1
51		6		41		1
52		33		55		1
53		33		32		ar
54		38		1		1
55		37		1		1
56		1		39		1
57		31		32		ar
58		31		53		1
59		32		54		1

