@<TRIPOS>MOLECULE
MXD-2011-CMC-2225-9l
 38 40 0 0 0
SMALL
MULLIKEN_CHARGES
****
Gaussian 16 #p B3LYP/6-31G* opt
@<TRIPOS>ATOM
1		N		-8.5550		-2.4987		0.0800		N.1		1		UNL1		-0.4867
2		C		-7.4812		-2.0487		0.0695		C.1		1		UNL1		0.2263
3		C		-6.1610		-1.4977		0.0562		C.ar		1		UNL1		0.1303
4		C		-5.9655		-0.1071		0.0163		C.ar		1		UNL1		-0.1536
5		C		-4.6894		0.4414		0.0024		C.ar		1		UNL1		-0.1606
6		C		-3.5639		-0.4041		0.0286		C.ar		1		UNL1		0.3835
7		N		-2.2438		0.0420		0.0151		N.pl3		1		UNL1		-0.7689
8		C		-1.6865		1.3064		-0.0106		C.ar		1		UNL1		0.6943
9		N		-2.4689		2.3904		-0.0280		N.ar		1		UNL1		-0.4821
10		C		-1.8141		3.5630		-0.0488		C.ar		1		UNL1		0.0646
11		C		-0.4351		3.6722		-0.0529		C.ar		1		UNL1		-0.1845
12		C		0.2906		2.4643		-0.0331		C.ar		1		UNL1		0.3200
13		C		1.7741		2.4415		-0.0289		C.2		1		UNL1		0.1639
14		N		2.3524		3.6021		-0.0243		N.2		1		UNL1		-0.3019
15		N		3.6978		3.6988		0.0259		N.pl3		1		UNL1		-0.5400
16		C		2.5053		1.1378		-0.0212		C.ar		1		UNL1		0.0698
17		C		3.3912		0.8276		1.0224		C.ar		1		UNL1		-0.1649
18		C		4.0936		-0.3780		1.0367		C.ar		1		UNL1		-0.1547
19		C		3.9125		-1.2796		-0.0092		C.ar		1		UNL1		0.0874
20		BR		4.8734		-2.9315		-0.0039		Br		1		UNL1		-0.1220
21		C		3.0420		-0.9967		-1.0614		C.ar		1		UNL1		-0.1604
22		C		2.3414		0.2074		-1.0594		C.ar		1		UNL1		-0.1316
23		N		-0.3379		1.2846		-0.0133		N.ar		1		UNL1		-0.5844
24		C		-3.7609		-1.8003		0.0691		C.ar		1		UNL1		-0.2062
25		C		-5.0356		-2.3406		0.0828		C.ar		1		UNL1		-0.1408
26		H		-6.8285		0.5510		-0.0040		H		1		UNL1		0.1568
27		H		-4.5463		1.5119		-0.0273		H		1		UNL1		0.1893
28		H		-1.5305		-0.6756		0.0400		H		1		UNL1		0.3457
29		H		-2.4421		4.4521		-0.0629		H		1		UNL1		0.1518
30		H		0.0708		4.6279		-0.0677		H		1		UNL1		0.1636
31		H		4.2384		2.9013		-0.3102		H		1		UNL1		0.3255
32		H		4.0141		4.5930		-0.3269		H		1		UNL1		0.3466
33		H		3.5278		1.5315		1.8384		H		1		UNL1		0.1623
34		H		4.7698		-0.6136		1.8513		H		1		UNL1		0.1605
35		H		2.9131		-1.7094		-1.8687		H		1		UNL1		0.1589
36		H		1.6545		0.4249		-1.8706		H		1		UNL1		0.1503
37		H		-2.8982		-2.4624		0.0905		H		1		UNL1		0.1357
38		H		-5.1693		-3.4171		0.1144		H		1		UNL1		0.1564
@<TRIPOS>BOND
1		36		22		1
2		35		21		1
3		21		22		ar
4		21		19		ar
5		22		16		ar
6		32		15		1
7		31		15		1
8		30		11		1
9		29		10		1
10		11		10		ar
11		11		12		ar
12		10		9		ar
13		12		13		1
14		12		23		ar
15		13		14		2
16		13		16		1
17		9		8		ar
18		27		5		1
19		14		15		1
20		16		17		ar
21		23		8		ar
22		8		7		1
23		19		20		1
24		19		18		ar
25		26		4		1
26		5		4		ar
27		5		6		ar
28		7		6		1
29		7		28		1
30		4		3		ar
31		6		24		ar
32		3		2		1
33		3		25		ar
34		24		25		ar
35		24		37		1
36		2		1		3
37		25		38		1
38		17		18		ar
39		17		33		1
40		18		34		1

