@<TRIPOS>MOLECULE
MXD-2011-BMC-4601-10r
 56 59 0 0 0
SMALL
MULLIKEN_CHARGES
****
Gaussian 16 #p B3LYP/6-31G* opt
@<TRIPOS>ATOM
1		C		-2.5010		-1.4466		-1.4278		C.3		1		UNL1		-0.5711
2		C		-3.7020		-1.2599		-0.5293		C.ar		1		UNL1		0.1527
3		C		-4.9777		-1.1483		-1.0786		C.ar		1		UNL1		-0.2122
4		C		-6.0978		-0.9942		-0.2607		C.ar		1		UNL1		-0.1236
5		S		-7.7155		-0.8522		-1.0075		S.O2		1		UNL1		1.1652
6		N		-7.8258		0.7993		-1.4063		N.3		1		UNL1		-0.8147
7		O		-7.6950		-1.5673		-2.2877		O.2		1		UNL1		-0.5436
8		O		-8.7094		-1.1405		0.0323		O.2		1		UNL1		-0.5304
9		C		-5.9706		-0.9642		1.1254		C.ar		1		UNL1		-0.1659
10		C		-4.7071		-1.0722		1.6994		C.ar		1		UNL1		-0.1559
11		C		-3.5762		-1.2119		0.8812		C.ar		1		UNL1		0.2924
12		N		-2.2776		-1.3176		1.4193		N.am		1		UNL1		-0.7237
13		C		-1.8769		-1.2893		2.7290		C.2		1		UNL1		0.5880
14		O		-2.5974		-1.2020		3.7119		O.2		1		UNL1		-0.4940
15		C		-0.3568		-1.4423		2.9049		C.3		1		UNL1		-0.1490
16		O		0.4039		-1.0047		1.7824		O.3		1		UNL1		-0.5502
17		C		0.5573		0.3465		1.5533		C.ar		1		UNL1		0.3474
18		C		0.0693		1.3522		2.4226		C.ar		1		UNL1		-0.1873
19		C		0.2707		2.6763		2.1067		C.ar		1		UNL1		-0.1960
20		C		0.9448		3.0611		0.9206		C.ar		1		UNL1		0.1381
21		C		1.1501		4.4287		0.5956		C.ar		1		UNL1		-0.2211
22		C		1.7933		4.7664		-0.5687		C.ar		1		UNL1		0.0811
23		BR		2.0737		6.6039		-1.0083		Br		1		UNL1		-0.1193
24		C		2.2568		3.7750		-1.4646		C.ar		1		UNL1		-0.1496
25		C		2.0692		2.4450		-1.1694		C.ar		1		UNL1		-0.1948
26		C		1.4142		2.0423		0.0285		C.ar		1		UNL1		0.1206
27		C		1.2189		0.6749		0.3799		C.ar		1		UNL1		-0.0850
28		C		1.6337		-0.4318		-0.5631		C.2		1		UNL1		0.3341
29		O		0.9859		-0.6402		-1.5791		O.2		1		UNL1		-0.4543
30		C		2.8525		-1.2447		-0.2498		C.ar		1		UNL1		0.0915
31		C		3.6660		-0.9574		0.8531		C.ar		1		UNL1		-0.1602
32		C		4.7943		-1.7404		1.0846		C.ar		1		UNL1		-0.0770
33		CL		5.8207		-1.3888		2.4635		Cl		1		UNL1		0.0036
34		C		5.1301		-2.8014		0.2445		C.ar		1		UNL1		-0.1349
35		C		4.3049		-3.0678		-0.8500		C.ar		1		UNL1		0.0765
36		BR		4.7540		-4.5171		-2.0079		Br		1		UNL1		-0.0978
37		C		3.1746		-2.3050		-1.1097		C.ar		1		UNL1		-0.1726
38		H		-2.8072		-1.4574		-2.4770		H		1		UNL1		0.1768
39		H		-1.9884		-2.3988		-1.2335		H		1		UNL1		0.1681
40		H		-1.7542		-0.6491		-1.3206		H		1		UNL1		0.1898
41		H		-5.1042		-1.1986		-2.1553		H		1		UNL1		0.1697
42		H		-8.1422		0.8730		-2.3717		H		1		UNL1		0.3563
43		H		-8.4816		1.2590		-0.7771		H		1		UNL1		0.3522
44		H		-6.8520		-0.8733		1.7508		H		1		UNL1		0.1785
45		H		-4.5851		-1.0562		2.7733		H		1		UNL1		0.1951
46		H		-1.5216		-1.3867		0.7495		H		1		UNL1		0.3662
47		H		-0.0640		-0.9379		3.8296		H		1		UNL1		0.1883
48		H		-0.1193		-2.5054		3.0101		H		1		UNL1		0.2016
49		H		-0.4761		1.0934		3.3226		H		1		UNL1		0.1696
50		H		-0.1024		3.4492		2.7732		H		1		UNL1		0.1530
51		H		0.7936		5.1975		1.2735		H		1		UNL1		0.1593
52		H		2.7545		4.0722		-2.3810		H		1		UNL1		0.1620
53		H		2.4150		1.6928		-1.8706		H		1		UNL1		0.1584
54		H		3.4280		-0.1353		1.5175		H		1		UNL1		0.1750
55		H		6.0104		-3.4027		0.4367		H		1		UNL1		0.1847
56		H		2.5364		-2.5092		-1.9610		H		1		UNL1		0.1880
@<TRIPOS>BOND
1		38		1		1
2		52		24		1
3		42		6		1
4		7		5		2
5		41		3		1
6		36		35		1
7		56		37		1
8		53		25		1
9		29		28		2
10		24		25		ar
11		24		22		ar
12		1		40		1
13		1		39		1
14		1		2		1
15		6		5		1
16		6		43		1
17		25		26		ar
18		37		35		ar
19		37		30		ar
20		3		2		ar
21		3		4		ar
22		23		22		1
23		5		4		1
24		5		8		2
25		35		34		ar
26		22		21		ar
27		28		30		1
28		28		27		1
29		2		11		ar
30		4		9		ar
31		30		31		ar
32		26		27		ar
33		26		20		ar
34		34		55		1
35		34		32		ar
36		27		17		ar
37		21		20		ar
38		21		51		1
39		46		12		1
40		31		32		ar
41		31		54		1
42		11		12		1
43		11		10		ar
44		20		19		ar
45		32		33		1
46		9		10		ar
47		9		44		1
48		12		13		1
49		17		16		1
50		17		18		ar
51		10		45		1
52		16		15		1
53		19		18		ar
54		19		50		1
55		18		49		1
56		13		15		1
57		13		14		2
58		15		48		1
59		15		47		1

