@<TRIPOS>MOLECULE
MXD-2011-BMC-4601-10g
 62 65 0 0 0
SMALL
MULLIKEN_CHARGES
****
Gaussian 16 #p B3LYP/6-31G* opt
@<TRIPOS>ATOM
1		C		-7.8464		-2.5042		-0.1704		C.3		1		UNL1		-0.5350
2		C		-6.4354		-1.9808		-0.0643		C.ar		1		UNL1		0.1423
3		C		-6.1346		-0.6797		-0.4836		C.ar		1		UNL1		-0.1914
4		C		-4.8432		-0.1664		-0.3948		C.ar		1		UNL1		-0.1707
5		C		-3.8134		-0.9636		0.1201		C.ar		1		UNL1		0.0905
6		C		-2.4075		-0.4861		0.2140		C.2		1		UNL1		0.3335
7		O		-1.4974		-1.2454		0.5318		O.2		1		UNL1		-0.4700
8		C		-2.0848		0.9583		-0.1048		C.ar		1		UNL1		-0.0876
9		C		-1.3531		1.2266		-1.2533		C.ar		1		UNL1		0.3441
10		O		-1.0967		0.1391		-2.0606		O.3		1		UNL1		-0.5405
11		C		-0.2162		0.2788		-3.1648		C.3		1		UNL1		-0.1434
12		C		1.2684		0.3931		-2.7849		C.2		1		UNL1		0.5861
13		O		2.0485		0.9325		-3.5566		O.2		1		UNL1		-0.4987
14		N		1.5842		-0.1995		-1.5889		N.am		1		UNL1		-0.7273
15		C		2.8456		-0.2876		-0.9635		C.ar		1		UNL1		0.2898
16		C		3.9631		0.4063		-1.4568		C.ar		1		UNL1		-0.1532
17		C		5.1888		0.3104		-0.8060		C.ar		1		UNL1		-0.1744
18		C		5.3016		-0.4825		0.3351		C.ar		1		UNL1		-0.1421
19		S		6.8882		-0.6489		1.1558		S.O2		1		UNL1		1.1596
20		N		7.6984		-1.9344		0.4148		N.3		1		UNL1		-0.7854
21		O		7.6782		0.5396		0.8369		O.2		1		UNL1		-0.5286
22		O		6.6336		-1.0920		2.5263		O.2		1		UNL1		-0.5298
23		C		4.1933		-1.1702		0.8319		C.ar		1		UNL1		-0.2296
24		C		2.9529		-1.0908		0.1983		C.ar		1		UNL1		0.1522
25		C		1.7728		-1.8564		0.7470		C.3		1		UNL1		-0.5673
26		C		-0.9319		2.5424		-1.5622		C.ar		1		UNL1		-0.1878
27		C		-1.2555		3.5751		-0.7120		C.ar		1		UNL1		-0.2005
28		C		-2.0001		3.3551		0.4726		C.ar		1		UNL1		0.1405
29		C		-2.3238		4.4171		1.3594		C.ar		1		UNL1		-0.1921
30		C		-3.0273		4.1812		2.5170		C.ar		1		UNL1		-0.1347
31		C		-3.4329		2.8628		2.8379		C.ar		1		UNL1		-0.1331
32		C		-3.1378		1.8107		2.0010		C.ar		1		UNL1		-0.1992
33		C		-2.4204		2.0198		0.7882		C.ar		1		UNL1		0.1114
34		C		-4.1106		-2.2721		0.5362		C.ar		1		UNL1		-0.2235
35		C		-5.3996		-2.7931		0.4572		C.ar		1		UNL1		0.1324
36		C		-5.6803		-4.2032		0.9203		C.3		1		UNL1		-0.5336
37		H		-8.5181		-1.7515		-0.5931		H		1		UNL1		0.1610
38		H		-7.8984		-3.3970		-0.8069		H		1		UNL1		0.1672
39		H		-8.2429		-2.7958		0.8107		H		1		UNL1		0.1671
40		H		-6.9301		-0.0582		-0.8875		H		1		UNL1		0.1313
41		H		-4.6359		0.8453		-0.7281		H		1		UNL1		0.1500
42		H		-0.3544		-0.6335		-3.7540		H		1		UNL1		0.1952
43		H		-0.4692		1.1302		-3.8030		H		1		UNL1		0.1827
44		H		0.7973		-0.5960		-1.0851		H		1		UNL1		0.3769
45		H		3.8582		1.0145		-2.3437		H		1		UNL1		0.1939
46		H		6.0456		0.8682		-1.1697		H		1		UNL1		0.1743
47		H		7.8972		-1.7455		-0.5649		H		1		UNL1		0.3458
48		H		7.2091		-2.8173		0.5413		H		1		UNL1		0.3446
49		H		4.2953		-1.7608		1.7371		H		1		UNL1		0.1703
50		H		1.3958		-2.5934		0.0251		H		1		UNL1		0.1660
51		H		0.9245		-1.2125		1.0064		H		1		UNL1		0.2034
52		H		2.0595		-2.4009		1.6508		H		1		UNL1		0.1669
53		H		-0.3453		2.7446		-2.4506		H		1		UNL1		0.1607
54		H		-0.9279		4.5848		-0.9462		H		1		UNL1		0.1445
55		H		-1.9976		5.4229		1.1056		H		1		UNL1		0.1360
56		H		-3.2680		4.9996		3.1894		H		1		UNL1		0.1354
57		H		-3.9804		2.6794		3.7584		H		1		UNL1		0.1363
58		H		-3.4523		0.8071		2.2685		H		1		UNL1		0.1445
59		H		-3.2987		-2.8786		0.9266		H		1		UNL1		0.1540
60		H		-4.7698		-4.6829		1.2905		H		1		UNL1		0.1640
61		H		-6.0800		-4.8250		0.1087		H		1		UNL1		0.1629
62		H		-6.4226		-4.2251		1.7286		H		1		UNL1		0.1627
@<TRIPOS>BOND
1		43		11		1
2		42		11		1
3		13		12		2
4		11		12		1
5		11		10		1
6		12		14		1
7		53		26		1
8		45		16		1
9		10		9		1
10		14		44		1
11		14		15		1
12		26		9		ar
13		26		27		ar
14		16		15		ar
15		16		17		ar
16		9		8		ar
17		46		17		1
18		15		24		ar
19		54		27		1
20		40		3		1
21		38		1		1
22		17		18		ar
23		41		4		1
24		27		28		ar
25		37		1		1
26		47		20		1
27		3		4		ar
28		3		2		ar
29		4		5		ar
30		1		2		1
31		1		39		1
32		8		6		1
33		8		33		ar
34		2		35		ar
35		50		25		1
36		61		36		1
37		5		6		1
38		5		34		ar
39		24		25		1
40		24		23		ar
41		6		7		2
42		18		23		ar
43		18		19		1
44		20		48		1
45		20		19		1
46		35		34		ar
47		35		36		1
48		28		33		ar
49		28		29		ar
50		34		59		1
51		25		51		1
52		25		52		1
53		33		32		ar
54		23		49		1
55		21		19		2
56		36		60		1
57		36		62		1
58		55		29		1
59		19		22		2
60		29		30		ar
61		32		58		1
62		32		31		ar
63		30		31		ar
64		30		56		1
65		31		57		1

