@<TRIPOS>MOLECULE
MXD-2011-BMC-4704-7a
 52 54 0 0 0
SMALL
MULLIKEN_CHARGES
****
Gaussian 16 #p B3LYP/6-31G* opt
@<TRIPOS>ATOM
1		C		3.4438		-2.2213		2.3993		C.3		1		UNL1		-0.5690
2		C		3.7706		-1.3551		1.2040		C.ar		1		UNL1		0.1540
3		C		5.0987		-1.0806		0.8843		C.ar		1		UNL1		-0.2120
4		C		5.4175		-0.2877		-0.2180		C.ar		1		UNL1		-0.1227
5		S		7.1357		0.0411		-0.5924		S.O2		1		UNL1		1.1678
6		N		7.5008		1.3887		0.3790		N.3		1		UNL1		-0.8146
7		O		7.2081		0.4523		-1.9979		O.2		1		UNL1		-0.5269
8		O		7.9369		-1.0639		-0.0565		O.2		1		UNL1		-0.5425
9		C		4.4171		0.2370		-1.0316		C.ar		1		UNL1		-0.1641
10		C		3.0821		-0.0201		-0.7314		C.ar		1		UNL1		-0.1523
11		C		2.7556		-0.8093		0.3811		C.ar		1		UNL1		0.2943
12		N		1.4169		-1.1048		0.7224		N.am		1		UNL1		-0.7309
13		C		0.2559		-0.7000		0.1148		C.2		1		UNL1		0.6310
14		O		0.1857		0.0600		-0.8390		O.2		1		UNL1		-0.4856
15		C		-1.0052		-1.3464		0.7132		C.3		1		UNL1		-0.1321
16		O		-2.0662		-0.4546		0.4799		O.3		1		UNL1		-0.5145
17		C		-3.3249		-0.9438		0.2226		C.ar		1		UNL1		0.3211
18		C		-3.8069		-2.1351		0.7625		C.ar		1		UNL1		-0.1739
19		C		-5.1091		-2.5550		0.4765		C.ar		1		UNL1		-0.1436
20		C		-5.9083		-1.7664		-0.3421		C.ar		1		UNL1		-0.0595
21		CL		-7.5504		-2.2798		-0.7115		Cl		1		UNL1		-0.0248
22		C		-5.4241		-0.5730		-0.8836		C.ar		1		UNL1		-0.2137
23		C		-4.1270		-0.1420		-0.6104		C.ar		1		UNL1		0.1326
24		C		-3.5726		1.1370		-1.2407		C.3		1		UNL1		0.0043
25		O		-2.4458		0.8735		-2.0574		O.3		1		UNL1		-0.6582
26		C		-3.3316		2.2590		-0.2220		C.ar		1		UNL1		0.1302
27		C		-4.2178		2.4805		0.8402		C.ar		1		UNL1		-0.1811
28		C		-4.0173		3.5402		1.7254		C.ar		1		UNL1		-0.1351
29		C		-2.9254		4.3948		1.5619		C.ar		1		UNL1		-0.1290
30		C		-2.0408		4.1825		0.5037		C.ar		1		UNL1		-0.1311
31		C		-2.2444		3.1244		-0.3838		C.ar		1		UNL1		-0.1861
32		H		2.8949		-3.1306		2.1161		H		1		UNL1		0.1667
33		H		4.3597		-2.5459		2.8992		H		1		UNL1		0.1851
34		H		2.8422		-1.6861		3.1474		H		1		UNL1		0.1684
35		H		5.8960		-1.5006		1.4890		H		1		UNL1		0.1720
36		H		7.5958		2.2176		-0.2053		H		1		UNL1		0.3546
37		H		8.3679		1.1981		0.8783		H		1		UNL1		0.3579
38		H		4.6775		0.8295		-1.9018		H		1		UNL1		0.1830
39		H		2.2921		0.3813		-1.3496		H		1		UNL1		0.2024
40		H		1.3014		-1.6941		1.5351		H		1		UNL1		0.3436
41		H		-1.1729		-2.3063		0.2032		H		1		UNL1		0.1840
42		H		-0.8837		-1.5476		1.7883		H		1		UNL1		0.1526
43		H		-3.1853		-2.7351		1.4197		H		1		UNL1		0.1373
44		H		-5.4928		-3.4798		0.8933		H		1		UNL1		0.1569
45		H		-6.0601		0.0173		-1.5361		H		1		UNL1		0.1597
46		H		-4.3369		1.4927		-1.9442		H		1		UNL1		0.1572
47		H		-1.6962		0.6077		-1.4885		H		1		UNL1		0.4395
48		H		-5.0693		1.8196		0.9809		H		1		UNL1		0.1270
49		H		-4.7145		3.6960		2.5449		H		1		UNL1		0.1250
50		H		-2.7674		5.2194		2.2523		H		1		UNL1		0.1236
51		H		-1.1888		4.8434		0.3649		H		1		UNL1		0.1255
52		H		-1.5622		2.9619		-1.2114		H		1		UNL1		0.1458
@<TRIPOS>BOND
1		25		47		1
2		25		24		1
3		7		5		2
4		46		24		1
5		38		9		1
6		45		22		1
7		39		10		1
8		24		23		1
9		24		26		1
10		52		31		1
11		9		10		ar
12		9		4		ar
13		22		23		ar
14		22		20		ar
15		14		13		2
16		10		11		ar
17		21		20		1
18		23		17		ar
19		5		4		1
20		5		8		2
21		5		6		1
22		31		26		ar
23		31		30		ar
24		20		19		ar
25		26		27		ar
26		4		3		ar
27		36		6		1
28		13		15		1
29		13		12		1
30		41		15		1
31		17		16		1
32		17		18		ar
33		51		30		1
34		6		37		1
35		11		12		1
36		11		2		ar
37		19		18		ar
38		19		44		1
39		16		15		1
40		30		29		ar
41		15		42		1
42		12		40		1
43		18		43		1
44		27		48		1
45		27		28		ar
46		3		2		ar
47		3		35		1
48		2		1		1
49		29		28		ar
50		29		50		1
51		28		49		1
52		32		1		1
53		1		33		1
54		1		34		1

