@<TRIPOS>MOLECULE
SGF-2005-CPB-886-7A
 42 44 0 0 0
SMALL
MULLIKEN_CHARGES
****
Gaussian 16 #p B3LYP/6-31G* opt
@<TRIPOS>ATOM
1		C		1.1873		3.3780		1.0606		C.3		1		UNL1		-0.4609
2		C		-0.1230		2.9457		0.4266		C.3		1		UNL1		-0.0230
3		O		0.1796		1.9802		-0.5876		O.3		1		UNL1		-0.4517
4		C		-0.8947		1.5972		-1.3875		C.3		1		UNL1		0.0711
5		N		-1.8696		0.7003		-0.7190		N.ar		1		UNL1		-0.5182
6		C		-1.6499		-0.6795		-0.5552		C.ar		1		UNL1		0.0410
7		S		-0.0985		-1.3544		-1.1541		S.3		1		UNL1		0.1707
8		C		1.0704		-0.9260		0.1551		C.ar		1		UNL1		-0.1388
9		C		0.6763		-0.8892		1.4764		C.ar		1		UNL1		-0.1582
10		C		1.6134		-0.6152		2.4985		C.ar		1		UNL1		-0.1275
11		C		2.9388		-0.4134		2.1924		C.ar		1		UNL1		-0.1960
12		C		3.3838		-0.4641		0.8451		C.ar		1		UNL1		0.1457
13		C		4.7511		-0.2684		0.5119		C.ar		1		UNL1		-0.1916
14		C		5.1779		-0.3094		-0.7951		C.ar		1		UNL1		-0.1308
15		C		4.2462		-0.5406		-1.8338		C.ar		1		UNL1		-0.1352
16		C		2.9131		-0.7340		-1.5477		C.ar		1		UNL1		-0.2029
17		C		2.4384		-0.7115		-0.2081		C.ar		1		UNL1		0.1287
18		C		-2.5997		-1.5140		-0.0407		C.ar		1		UNL1		0.0323
19		C		-2.4658		-2.9977		0.1672		C.3		1		UNL1		-0.5097
20		C		-3.8976		-0.9517		0.3631		C.ar		1		UNL1		0.6023
21		O		-4.8263		-1.5991		0.8240		O.2		1		UNL1		-0.4963
22		N		-4.0049		0.4306		0.2031		N.ar		1		UNL1		-0.6974
23		C		-3.0679		1.3048		-0.3114		C.ar		1		UNL1		0.7850
24		O		-3.2861		2.5027		-0.4053		O.2		1		UNL1		-0.5171
25		H		1.8496		3.8242		0.3117		H		1		UNL1		0.1574
26		H		1.7002		2.5206		1.5073		H		1		UNL1		0.1677
27		H		0.9989		4.1196		1.8449		H		1		UNL1		0.1442
28		H		-0.7914		2.5043		1.1788		H		1		UNL1		0.1341
29		H		-0.6522		3.7980		-0.0221		H		1		UNL1		0.1435
30		H		-1.4795		2.4555		-1.7254		H		1		UNL1		0.1838
31		H		-0.4724		1.0570		-2.2325		H		1		UNL1		0.1823
32		H		-0.3605		-1.0705		1.7406		H		1		UNL1		0.1419
33		H		1.2757		-0.5828		3.5307		H		1		UNL1		0.1378
34		H		3.6655		-0.2196		2.9772		H		1		UNL1		0.1352
35		H		5.4580		-0.0840		1.3173		H		1		UNL1		0.1339
36		H		6.2272		-0.1590		-1.0333		H		1		UNL1		0.1347
37		H		4.5844		-0.5597		-2.8661		H		1		UNL1		0.1351
38		H		2.2105		-0.8963		-2.3585		H		1		UNL1		0.1530
39		H		-1.4322		-3.3322		0.0797		H		1		UNL1		0.1832
40		H		-2.8606		-3.2681		1.1513		H		1		UNL1		0.1791
41		H		-3.0702		-3.5441		-0.5676		H		1		UNL1		0.1755
42		H		-4.8810		0.8542		0.4883		H		1		UNL1		0.3562
@<TRIPOS>BOND
1		37		15		1
2		38		16		1
3		31		4		1
4		15		16		ar
5		15		14		ar
6		30		4		1
7		16		17		ar
8		4		5		1
9		4		3		1
10		7		6		1
11		7		8		1
12		36		14		1
13		14		13		ar
14		5		6		ar
15		5		23		ar
16		3		2		1
17		41		19		1
18		6		18		ar
19		24		23		2
20		23		22		ar
21		17		8		ar
22		17		12		ar
23		18		19		1
24		18		20		ar
25		29		2		1
26		39		19		1
27		8		9		ar
28		19		40		1
29		22		20		ar
30		22		42		1
31		25		1		1
32		20		21		2
33		2		1		1
34		2		28		1
35		13		12		ar
36		13		35		1
37		12		11		ar
38		1		26		1
39		1		27		1
40		9		32		1
41		9		10		ar
42		11		10		ar
43		11		34		1
44		10		33		1

