@<TRIPOS>MOLECULE
SGF-2005-CPB-886-11C
 54 57 0 0 0
SMALL
MULLIKEN_CHARGES
****
Gaussian 16 #p B3LYP/6-31G* opt
@<TRIPOS>ATOM
1		C		-1.1957		3.8228		2.2241		C.3		1		UNL1		-0.4486
2		C		-1.4892		3.1499		0.8706		C.3		1		UNL1		-0.3244
3		C		-0.2315		2.7162		0.1565		C.ar		1		UNL1		0.0586
4		C		0.3020		1.4638		0.1659		C.ar		1		UNL1		-0.0164
5		S		-0.4536		0.1295		1.1260		S.3		1		UNL1		0.2927
6		C		-1.8302		-0.3111		0.0636		C.ar		1		UNL1		-0.1272
7		C		-1.7621		-0.0594		-1.3327		C.ar		1		UNL1		-0.1651
8		C		-2.7924		-0.4135		-2.1640		C.ar		1		UNL1		-0.1548
9		C		-3.9604		-1.0520		-1.6752		C.ar		1		UNL1		0.1090
10		C		-4.9988		-1.4433		-2.5587		C.ar		1		UNL1		-0.1918
11		C		-6.1192		-2.0866		-2.0877		C.ar		1		UNL1		-0.1276
12		C		-6.2323		-2.3635		-0.7074		C.ar		1		UNL1		-0.1333
13		C		-5.2478		-1.9882		0.1819		C.ar		1		UNL1		-0.1780
14		C		-4.0795		-1.3148		-0.2709		C.ar		1		UNL1		0.1398
15		C		-2.9844		-0.9129		0.5682		C.ar		1		UNL1		0.1768
16		N		-3.0585		-1.1399		2.0098		N.pl3		1		UNL1		0.3387
17		O		-4.1404		-1.0139		2.5834		O.2		1		UNL1		-0.3807
18		O		-2.0029		-1.4261		2.5868		O.2		1		UNL1		-0.3734
19		N		1.4998		1.1471		-0.5017		N.ar		1		UNL1		-0.5198
20		C		2.1590		-0.1376		-0.3252		C.3		1		UNL1		0.0805
21		O		2.7420		-0.1394		0.9626		O.3		1		UNL1		-0.4666
22		C		3.2893		-1.3996		1.3419		C.3		1		UNL1		-0.0999
23		C		4.5262		-1.8051		0.5605		C.ar		1		UNL1		0.1068
24		C		4.8084		-3.1594		0.3487		C.ar		1		UNL1		-0.1809
25		C		5.9723		-3.5473		-0.3167		C.ar		1		UNL1		-0.1289
26		C		6.8600		-2.5805		-0.7920		C.ar		1		UNL1		-0.1282
27		C		6.5777		-1.2270		-0.5961		C.ar		1		UNL1		-0.1298
28		C		5.4207		-0.8401		0.0810		C.ar		1		UNL1		-0.1690
29		C		2.2666		2.1336		-1.1478		C.ar		1		UNL1		0.7964
30		O		3.3506		1.9160		-1.6605		O.2		1		UNL1		-0.5056
31		N		1.6693		3.3777		-1.1802		N.ar		1		UNL1		-0.7021
32		C		0.4778		3.7812		-0.5722		C.ar		1		UNL1		0.6084
33		O		0.0995		4.9398		-0.6638		O.2		1		UNL1		-0.4986
34		H		-0.5547		4.6991		2.0886		H		1		UNL1		0.1686
35		H		-0.6985		3.1282		2.9096		H		1		UNL1		0.1569
36		H		-2.1293		4.1538		2.6919		H		1		UNL1		0.1514
37		H		-2.0034		3.8683		0.2238		H		1		UNL1		0.1724
38		H		-2.1607		2.3018		1.0172		H		1		UNL1		0.1560
39		H		-0.8801		0.4141		-1.7459		H		1		UNL1		0.1617
40		H		-2.7126		-0.2172		-3.2301		H		1		UNL1		0.1527
41		H		-4.8850		-1.2289		-3.6182		H		1		UNL1		0.1427
42		H		-6.9101		-2.3855		-2.7693		H		1		UNL1		0.1437
43		H		-7.1122		-2.8798		-0.3341		H		1		UNL1		0.1462
44		H		-5.3689		-2.2029		1.2338		H		1		UNL1		0.1773
45		H		1.4215		-0.9419		-0.4187		H		1		UNL1		0.1610
46		H		2.9102		-0.2217		-1.1112		H		1		UNL1		0.2007
47		H		2.5194		-2.1841		1.2686		H		1		UNL1		0.1419
48		H		3.5303		-1.2786		2.4039		H		1		UNL1		0.1741
49		H		4.1140		-3.9166		0.7080		H		1		UNL1		0.1239
50		H		6.1798		-4.6029		-0.4721		H		1		UNL1		0.1304
51		H		7.7629		-2.8798		-1.3175		H		1		UNL1		0.1305
52		H		7.2590		-0.4684		-0.9722		H		1		UNL1		0.1358
53		H		5.1943		0.2127		0.2211		H		1		UNL1		0.1574
54		H		2.1990		4.0991		-1.6570		H		1		UNL1		0.3577
@<TRIPOS>BOND
1		41		10		1
2		40		8		1
3		42		11		1
4		10		11		ar
5		10		9		ar
6		8		9		ar
7		8		7		ar
8		11		12		ar
9		39		7		1
10		9		14		ar
11		30		29		2
12		54		31		1
13		7		6		ar
14		51		26		1
15		31		29		ar
16		31		32		ar
17		29		19		ar
18		46		20		1
19		52		27		1
20		26		27		ar
21		26		25		ar
22		12		43		1
23		12		13		ar
24		33		32		2
25		27		28		ar
26		32		3		ar
27		19		20		1
28		19		4		ar
29		50		25		1
30		45		20		1
31		20		21		1
32		25		24		ar
33		14		13		ar
34		14		15		ar
35		6		15		ar
36		6		5		1
37		28		53		1
38		28		23		ar
39		3		4		ar
40		3		2		1
41		4		5		1
42		13		44		1
43		37		2		1
44		24		23		ar
45		24		49		1
46		23		22		1
47		15		16		1
48		2		38		1
49		2		1		1
50		21		22		1
51		47		22		1
52		22		48		1
53		16		17		2
54		16		18		2
55		34		1		1
56		1		36		1
57		1		35		1

