@<TRIPOS>MOLECULE
SGF-2005-CPB-886-12A
 44 46 0 0 0
SMALL
MULLIKEN_CHARGES
****
Gaussian 16 #p B3LYP/6-31G* opt
@<TRIPOS>ATOM
1		C		-1.0438		-3.7107		0.9246		C.3		1		UNL1		-0.4497
2		C		-0.6011		-2.6074		-0.0541		C.3		1		UNL1		-0.3293
3		C		-1.6505		-1.5373		-0.2297		C.ar		1		UNL1		0.0529
4		C		-1.6951		-0.3443		0.4259		C.ar		1		UNL1		0.0541
5		S		-0.4344		0.1409		1.6286		S.3		1		UNL1		0.1311
6		C		1.0363		0.3788		0.6182		C.ar		1		UNL1		-0.1715
7		C		1.0057		1.2936		-0.4661		C.ar		1		UNL1		-0.1632
8		C		2.1196		1.4983		-1.2386		C.ar		1		UNL1		-0.1897
9		C		3.3415		0.8414		-0.9263		C.ar		1		UNL1		0.1275
10		C		4.5157		1.0528		-1.6950		C.ar		1		UNL1		-0.1957
11		C		5.7045		0.4393		-1.3673		C.ar		1		UNL1		-0.1305
12		C		5.7736		-0.4062		-0.2378		C.ar		1		UNL1		-0.1342
13		C		4.6498		-0.6361		0.5276		C.ar		1		UNL1		-0.2006
14		C		3.4032		-0.0404		0.1992		C.ar		1		UNL1		0.1111
15		C		2.2071		-0.3002		0.9605		C.ar		1		UNL1		0.2315
16		N		2.2688		-1.1762		2.0422		N.pl3		1		UNL1		-0.7936
17		N		-2.7682		0.5548		0.2704		N.ar		1		UNL1		-0.5356
18		C		-2.7861		1.8792		0.8677		C.3		1		UNL1		0.0909
19		O		-1.9991		2.7412		0.0725		O.3		1		UNL1		-0.4515
20		C		-1.9963		4.0693		0.5697		C.3		1		UNL1		-0.2053
21		C		-3.8338		0.2920		-0.6115		C.ar		1		UNL1		0.7983
22		O		-4.7684		1.0557		-0.7815		O.2		1		UNL1		-0.5079
23		N		-3.7406		-0.9173		-1.2666		N.ar		1		UNL1		-0.7016
24		C		-2.7331		-1.8785		-1.1635		C.ar		1		UNL1		0.6106
25		O		-2.8017		-2.9142		-1.8111		O.2		1		UNL1		-0.5054
26		H		-1.2217		-3.3044		1.9270		H		1		UNL1		0.1437
27		H		-1.9654		-4.1868		0.5768		H		1		UNL1		0.1716
28		H		-0.2728		-4.4862		1.0014		H		1		UNL1		0.1430
29		H		-0.4253		-3.0593		-1.0355		H		1		UNL1		0.1744
30		H		0.3418		-2.1700		0.2750		H		1		UNL1		0.1506
31		H		0.0783		1.8163		-0.6757		H		1		UNL1		0.1789
32		H		2.0859		2.1802		-2.0839		H		1		UNL1		0.1297
33		H		4.4588		1.7188		-2.5526		H		1		UNL1		0.1338
34		H		6.5933		0.6139		-1.9674		H		1		UNL1		0.1335
35		H		6.7182		-0.8678		0.0360		H		1		UNL1		0.1321
36		H		4.7369		-1.2538		1.4160		H		1		UNL1		0.1301
37		H		1.3612		-1.4541		2.4003		H		1		UNL1		0.3443
38		H		2.8796		-1.9727		1.9112		H		1		UNL1		0.3268
39		H		-3.8293		2.2053		0.8789		H		1		UNL1		0.1850
40		H		-2.3976		1.8270		1.8891		H		1		UNL1		0.1630
41		H		-3.0107		4.4951		0.5825		H		1		UNL1		0.1472
42		H		-1.5768		4.1210		1.5860		H		1		UNL1		0.1440
43		H		-1.3703		4.6570		-0.1047		H		1		UNL1		0.1696
44		H		-4.5033		-1.1266		-1.9009		H		1		UNL1		0.3561
@<TRIPOS>BOND
1		33		10		1
2		32		8		1
3		34		11		1
4		44		23		1
5		25		24		2
6		10		11		ar
7		10		9		ar
8		11		12		ar
9		23		24		ar
10		23		21		ar
11		8		9		ar
12		8		7		ar
13		24		3		ar
14		29		2		1
15		9		14		ar
16		22		21		2
17		31		7		1
18		21		17		ar
19		7		6		ar
20		12		35		1
21		12		13		ar
22		3		2		1
23		3		4		ar
24		43		20		1
25		2		30		1
26		2		1		1
27		19		20		1
28		19		18		1
29		14		13		ar
30		14		15		ar
31		17		4		ar
32		17		18		1
33		4		5		1
34		13		36		1
35		20		41		1
36		20		42		1
37		27		1		1
38		6		15		ar
39		6		5		1
40		18		39		1
41		18		40		1
42		1		28		1
43		1		26		1
44		15		16		1
45		38		16		1
46		16		37		1

