@<TRIPOS>MOLECULE
SGF-2005-CPB-886-7O
 51 53 0 0 0
SMALL
MULLIKEN_CHARGES
****
Gaussian 16 #p B3LYP/6-31G* opt
@<TRIPOS>ATOM
1		C		1.3415		4.6953		1.7715		C.3		1		UNL1		-0.4547
2		C		1.4714		3.8021		0.5496		C.3		1		UNL1		-0.0144
3		O		0.2772		3.0369		0.4307		O.3		1		UNL1		-0.4673
4		C		0.2971		2.1792		-0.6878		C.3		1		UNL1		0.0849
5		N		-0.9504		1.4269		-0.6988		N.ar		1		UNL1		-0.5270
6		C		-1.1966		0.3652		0.1920		C.ar		1		UNL1		0.0385
7		S		0.1953		-0.2792		1.1207		S.3		1		UNL1		0.2063
8		C		1.2850		-0.9468		-0.1498		C.ar		1		UNL1		-0.1944
9		C		0.7917		-1.4565		-1.3348		C.ar		1		UNL1		-0.1540
10		C		1.6628		-2.0136		-2.2984		C.ar		1		UNL1		-0.1261
11		C		3.0147		-2.0811		-2.0597		C.ar		1		UNL1		-0.1928
12		C		3.5598		-1.5768		-0.8497		C.ar		1		UNL1		0.1473
13		C		4.9549		-1.6373		-0.5873		C.ar		1		UNL1		-0.1917
14		C		5.4824		-1.1344		0.5793		C.ar		1		UNL1		-0.1306
15		C		4.6310		-0.5375		1.5380		C.ar		1		UNL1		-0.1360
16		C		3.2732		-0.4622		1.3184		C.ar		1		UNL1		-0.2070
17		C		2.6919		-0.9826		0.1292		C.ar		1		UNL1		0.1160
18		C		-2.4513		-0.1248		0.4208		C.ar		1		UNL1		0.0349
19		C		-2.8157		-1.2486		1.3652		C.3		1		UNL1		-0.3290
20		C		-3.4602		-2.5011		0.7157		C.3		1		UNL1		-0.0805
21		C		-3.8438		-3.4990		1.8180		C.3		1		UNL1		-0.4449
22		C		-2.5483		-3.1611		-0.3259		C.3		1		UNL1		-0.4505
23		C		-3.5891		0.5200		-0.2572		C.ar		1		UNL1		0.6066
24		O		-4.7664		0.2424		-0.0747		O.2		1		UNL1		-0.5003
25		N		-3.2378		1.4964		-1.1902		N.ar		1		UNL1		-0.6962
26		C		-1.9885		2.0297		-1.4330		C.ar		1		UNL1		0.7956
27		O		-1.8148		2.9439		-2.2193		O.2		1		UNL1		-0.5063
28		H		2.2456		5.3008		1.8982		H		1		UNL1		0.1454
29		H		0.4842		5.3673		1.6651		H		1		UNL1		0.1646
30		H		1.1964		4.0921		2.6734		H		1		UNL1		0.1607
31		H		2.3401		3.1296		0.6477		H		1		UNL1		0.1286
32		H		1.6243		4.4063		-0.3598		H		1		UNL1		0.1306
33		H		1.1447		1.4909		-0.6468		H		1		UNL1		0.1633
34		H		0.3290		2.7442		-1.6232		H		1		UNL1		0.1847
35		H		-0.2745		-1.4385		-1.5312		H		1		UNL1		0.1547
36		H		1.2470		-2.4008		-3.2243		H		1		UNL1		0.1410
37		H		3.6856		-2.5209		-2.7931		H		1		UNL1		0.1376
38		H		5.6016		-2.0917		-1.3340		H		1		UNL1		0.1364
39		H		6.5514		-1.1892		0.7650		H		1		UNL1		0.1370
40		H		5.0519		-0.1320		2.4539		H		1		UNL1		0.1375
41		H		2.6368		0.0076		2.0613		H		1		UNL1		0.1611
42		H		-1.9331		-1.5580		1.9306		H		1		UNL1		0.1598
43		H		-3.5361		-0.8430		2.0875		H		1		UNL1		0.1617
44		H		-4.3792		-2.1765		0.2160		H		1		UNL1		0.1621
45		H		-4.5199		-3.0440		2.5514		H		1		UNL1		0.1450
46		H		-4.3500		-4.3746		1.3950		H		1		UNL1		0.1421
47		H		-2.9559		-3.8564		2.3564		H		1		UNL1		0.1373
48		H		-1.5858		-3.4558		0.1122		H		1		UNL1		0.1445
49		H		-2.3431		-2.4882		-1.1663		H		1		UNL1		0.1384
50		H		-3.0176		-4.0629		-0.7368		H		1		UNL1		0.1429
51		H		-4.0023		1.9450		-1.6827		H		1		UNL1		0.3560
@<TRIPOS>BOND
1		36		10		1
2		37		11		1
3		10		11		ar
4		10		9		ar
5		27		26		2
6		11		12		ar
7		51		25		1
8		34		4		1
9		35		9		1
10		26		25		ar
11		26		5		ar
12		9		8		ar
13		38		13		1
14		25		23		ar
15		49		22		1
16		12		13		ar
17		12		17		ar
18		50		22		1
19		5		4		1
20		5		6		ar
21		4		33		1
22		4		3		1
23		13		14		ar
24		32		2		1
25		22		48		1
26		22		20		1
27		23		24		2
28		23		18		ar
29		8		17		ar
30		8		7		1
31		17		16		ar
32		6		18		ar
33		6		7		1
34		44		20		1
35		18		19		1
36		3		2		1
37		2		31		1
38		2		1		1
39		14		39		1
40		14		15		ar
41		20		19		1
42		20		21		1
43		16		15		ar
44		16		41		1
45		19		42		1
46		19		43		1
47		46		21		1
48		15		40		1
49		29		1		1
50		1		28		1
51		1		30		1
52		21		47		1
53		21		45		1

