@<TRIPOS>MOLECULE
SGF-2005-CPB-886-7E
 52 55 0 0 0
SMALL
MULLIKEN_CHARGES
****
Gaussian 16 #p B3LYP/6-31G* opt
@<TRIPOS>ATOM
1		C		-2.2375		3.4264		2.0822		C.3		1		UNL1		-0.4482
2		C		-2.5493		2.4448		0.9369		C.3		1		UNL1		-0.3319
3		C		-1.3255		2.1313		0.1101		C.ar		1		UNL1		0.0501
4		C		-0.5065		1.0523		0.2546		C.ar		1		UNL1		0.0394
5		S		-0.8134		-0.2805		1.4340		S.3		1		UNL1		0.1769
6		C		-2.4481		-0.9206		1.0314		C.ar		1		UNL1		-0.1839
7		C		-3.3292		-1.0034		2.0950		C.ar		1		UNL1		-0.1564
8		C		-4.5967		-1.6109		1.9472		C.ar		1		UNL1		-0.1264
9		C		-4.9807		-2.1110		0.7265		C.ar		1		UNL1		-0.1879
10		C		-4.1070		-2.0487		-0.3917		C.ar		1		UNL1		0.1462
11		C		-4.4951		-2.5777		-1.6518		C.ar		1		UNL1		-0.1907
12		C		-3.6409		-2.5464		-2.7294		C.ar		1		UNL1		-0.1301
13		C		-2.3512		-1.9853		-2.5866		C.ar		1		UNL1		-0.1387
14		C		-1.9447		-1.4577		-1.3807		C.ar		1		UNL1		-0.1933
15		C		-2.8026		-1.4612		-0.2489		C.ar		1		UNL1		0.1343
16		N		0.6836		0.9092		-0.4904		N.ar		1		UNL1		-0.5264
17		C		1.6642		-0.1160		-0.1742		C.3		1		UNL1		0.0740
18		O		2.2311		0.2126		1.0824		O.3		1		UNL1		-0.4682
19		C		3.0869		-0.8005		1.6032		C.3		1		UNL1		-0.0992
20		C		4.3871		-0.9724		0.8387		C.ar		1		UNL1		0.1094
21		C		5.0135		0.1256		0.2359		C.ar		1		UNL1		-0.1663
22		C		6.2308		-0.0333		-0.4266		C.ar		1		UNL1		-0.1286
23		C		6.8416		-1.2878		-0.4853		C.ar		1		UNL1		-0.1281
24		C		6.2228		-2.3866		0.1132		C.ar		1		UNL1		-0.1286
25		C		4.9984		-2.2289		0.7644		C.ar		1		UNL1		-0.1810
26		C		1.1116		1.8926		-1.4006		C.ar		1		UNL1		0.7931
27		O		2.1707		1.8378		-2.0034		O.2		1		UNL1		-0.5105
28		N		0.2128		2.9213		-1.5796		N.ar		1		UNL1		-0.7005
29		C		-0.9774		3.1553		-0.8857		C.ar		1		UNL1		0.6094
30		O		-1.6365		4.1585		-1.1214		O.2		1		UNL1		-0.5059
31		H		-1.5055		3.0017		2.7780		H		1		UNL1		0.1507
32		H		-3.1501		3.6557		2.6442		H		1		UNL1		0.1439
33		H		-1.8383		4.3662		1.6889		H		1		UNL1		0.1677
34		H		-3.2894		2.9025		0.2726		H		1		UNL1		0.1709
35		H		-2.9926		1.5352		1.3401		H		1		UNL1		0.1584
36		H		-3.0435		-0.5867		3.0562		H		1		UNL1		0.1557
37		H		-5.2659		-1.6621		2.8012		H		1		UNL1		0.1413
38		H		-5.9593		-2.5666		0.5983		H		1		UNL1		0.1396
39		H		-5.4866		-3.0139		-1.7461		H		1		UNL1		0.1366
40		H		-3.9508		-2.9551		-3.6870		H		1		UNL1		0.1382
41		H		-1.6735		-1.9706		-3.4357		H		1		UNL1		0.1397
42		H		-0.9525		-1.0324		-1.2954		H		1		UNL1		0.1503
43		H		1.1757		-1.0952		-0.1267		H		1		UNL1		0.1610
44		H		2.4076		-0.1001		-0.9712		H		1		UNL1		0.2056
45		H		3.2877		-0.4808		2.6320		H		1		UNL1		0.1710
46		H		2.5494		-1.7607		1.6570		H		1		UNL1		0.1393
47		H		4.5316		1.0983		0.2717		H		1		UNL1		0.1538
48		H		6.7018		0.8246		-0.8990		H		1		UNL1		0.1358
49		H		7.7908		-1.4096		-1.0003		H		1		UNL1		0.1306
50		H		6.6869		-3.3682		0.0646		H		1		UNL1		0.1302
51		H		4.5141		-3.0909		1.2196		H		1		UNL1		0.1228
52		H		0.4941		3.6324		-2.2452		H		1		UNL1		0.3552
@<TRIPOS>BOND
1		40		12		1
2		41		13		1
3		12		13		ar
4		12		11		ar
5		13		14		ar
6		52		28		1
7		27		26		2
8		39		11		1
9		11		10		ar
10		28		26		ar
11		28		29		ar
12		26		16		ar
13		14		42		1
14		14		15		ar
15		30		29		2
16		49		23		1
17		44		17		1
18		48		22		1
19		29		3		ar
20		16		17		1
21		16		4		ar
22		23		22		ar
23		23		24		ar
24		22		21		ar
25		10		15		ar
26		10		9		ar
27		15		6		ar
28		17		43		1
29		17		18		1
30		50		24		1
31		3		4		ar
32		3		2		1
33		24		25		ar
34		21		47		1
35		21		20		ar
36		4		5		1
37		34		2		1
38		38		9		1
39		9		8		ar
40		25		20		ar
41		25		51		1
42		20		19		1
43		2		35		1
44		2		1		1
45		6		5		1
46		6		7		ar
47		18		19		1
48		19		46		1
49		19		45		1
50		33		1		1
51		8		7		ar
52		8		37		1
53		1		32		1
54		1		31		1
55		7		36		1

