@<TRIPOS>MOLECULE
SGF-2005-APALS-457-5E
 54 57 0 0 0
SMALL
MULLIKEN_CHARGES
****
Gaussian 16 #p B3LYP/6-31G* opt
@<TRIPOS>ATOM
1		C		3.8752		-4.6392		-0.1332		C.3		1		UNL1		-0.4447
2		C		3.3549		-3.5965		-1.1405		C.3		1		UNL1		-0.3403
3		C		2.3393		-2.6567		-0.5430		C.ar		1		UNL1		0.0589
4		C		2.6108		-1.4018		-0.0447		C.ar		1		UNL1		0.0033
5		S		4.3002		-0.7881		-0.0796		S.3		1		UNL1		0.1518
6		C		4.1366		0.9228		0.4364		C.ar		1		UNL1		-0.1500
7		C		4.5645		1.2475		1.7083		C.ar		1		UNL1		-0.1483
8		C		4.5547		2.5884		2.1574		C.ar		1		UNL1		-0.1266
9		C		4.1102		3.5892		1.3269		C.ar		1		UNL1		-0.1885
10		C		3.6652		3.2990		0.0095		C.ar		1		UNL1		0.1456
11		C		3.2101		4.3282		-0.8581		C.ar		1		UNL1		-0.1927
12		C		2.7901		4.0430		-2.1366		C.ar		1		UNL1		-0.1317
13		C		2.8108		2.7078		-2.6036		C.ar		1		UNL1		-0.1346
14		C		3.2436		1.6857		-1.7881		C.ar		1		UNL1		-0.1943
15		C		3.6800		1.9424		-0.4613		C.ar		1		UNL1		0.1347
16		N		1.6828		-0.5727		0.5252		N.ar		1		UNL1		-0.4722
17		C		0.4528		-0.9926		0.5496		C.ar		1		UNL1		0.3189
18		S		-0.7132		0.1705		1.2489		S.3		1		UNL1		0.2089
19		C		-2.1208		-0.8924		1.7955		C.3		1		UNL1		-0.5669
20		C		-3.0893		-1.2236		0.6631		C.2		1		UNL1		0.4272
21		O		-2.8115		-2.1687		-0.0767		O.2		1		UNL1		-0.4788
22		C		-4.3138		-0.4234		0.4565		C.ar		1		UNL1		0.0812
23		C		-5.1912		-0.8164		-0.5690		C.ar		1		UNL1		-0.1612
24		C		-6.3628		-0.1184		-0.8291		C.ar		1		UNL1		-0.1937
25		C		-6.6794		1.0125		-0.0576		C.ar		1		UNL1		0.3926
26		O		-7.7897		1.7693		-0.2211		O.3		1		UNL1		-0.4955
27		C		-8.7160		1.4180		-1.2444		C.3		1		UNL1		-0.2246
28		C		-5.8091		1.4237		0.9671		C.ar		1		UNL1		-0.1769
29		C		-4.6477		0.7138		1.2197		C.ar		1		UNL1		-0.1785
30		N		0.0544		-2.1964		0.0750		N.ar		1		UNL1		-0.6667
31		C		0.9674		-3.1323		-0.4816		C.ar		1		UNL1		0.5758
32		O		0.5538		-4.2173		-0.8745		O.2		1		UNL1		-0.5252
33		H		4.5977		-5.3099		-0.6125		H		1		UNL1		0.1419
34		H		3.0471		-5.2462		0.2459		H		1		UNL1		0.1668
35		H		4.3704		-4.1579		0.7174		H		1		UNL1		0.1497
36		H		2.8755		-4.1226		-1.9733		H		1		UNL1		0.1673
37		H		4.1956		-3.0275		-1.5538		H		1		UNL1		0.1567
38		H		4.9075		0.4596		2.3710		H		1		UNL1		0.1493
39		H		4.8949		2.8171		3.1634		H		1		UNL1		0.1337
40		H		4.0956		4.6225		1.6657		H		1		UNL1		0.1322
41		H		3.2020		5.3513		-0.4893		H		1		UNL1		0.1291
42		H		2.4450		4.8396		-2.7902		H		1		UNL1		0.1298
43		H		2.4826		2.4873		-3.6158		H		1		UNL1		0.1320
44		H		3.2588		0.6658		-2.1563		H		1		UNL1		0.1584
45		H		-2.5837		-0.3399		2.6146		H		1		UNL1		0.2019
46		H		-1.7245		-1.8267		2.2010		H		1		UNL1		0.2193
47		H		-4.9313		-1.6882		-1.1602		H		1		UNL1		0.1769
48		H		-7.0180		-0.4517		-1.6253		H		1		UNL1		0.1476
49		H		-8.2495		1.4597		-2.2361		H		1		UNL1		0.1637
50		H		-9.1343		0.4179		-1.0778		H		1		UNL1		0.1628
51		H		-9.5139		2.1595		-1.1869		H		1		UNL1		0.1811
52		H		-6.0707		2.3032		1.5460		H		1		UNL1		0.1529
53		H		-3.9939		1.0640		2.0117		H		1		UNL1		0.1431
54		H		-0.9399		-2.4477		0.0152		H		1		UNL1		0.3967
@<TRIPOS>BOND
1		43		13		1
2		42		12		1
3		13		12		ar
4		13		14		ar
5		49		27		1
6		44		14		1
7		12		11		ar
8		36		2		1
9		14		15		ar
10		48		24		1
11		37		2		1
12		27		51		1
13		27		50		1
14		27		26		1
15		47		23		1
16		2		3		1
17		2		1		1
18		32		31		2
19		11		41		1
20		11		10		ar
21		24		23		ar
22		24		25		ar
23		33		1		1
24		23		22		ar
25		3		31		ar
26		3		4		ar
27		31		30		ar
28		15		10		ar
29		15		6		ar
30		26		25		1
31		1		34		1
32		1		35		1
33		5		4		1
34		5		6		1
35		21		20		2
36		25		28		ar
37		4		16		ar
38		10		9		ar
39		54		30		1
40		30		17		ar
41		6		7		ar
42		22		20		1
43		22		29		ar
44		16		17		ar
45		17		18		1
46		20		19		1
47		28		29		ar
48		28		52		1
49		29		53		1
50		18		19		1
51		9		40		1
52		9		8		ar
53		7		8		ar
54		7		38		1
55		19		46		1
56		19		45		1
57		8		39		1

