@<TRIPOS>MOLECULE
SGF-2005-CPB-886-7R
 52 55 0 0 0
SMALL
MULLIKEN_CHARGES
****
Gaussian 16 #p B3LYP/6-31G* opt
@<TRIPOS>ATOM
1		C		5.4798		1.1158		-0.7570		C.3		1		UNL1		-0.4491
2		C		4.0931		0.9482		-1.4031		C.3		1		UNL1		-0.3218
3		C		2.9802		1.5429		-0.5722		C.ar		1		UNL1		0.0367
4		C		2.1744		0.8625		0.2940		C.ar		1		UNL1		0.0281
5		S		2.5169		-0.8752		0.6187		S.3		1		UNL1		0.1703
6		C		1.2974		-1.7534		-0.3844		C.ar		1		UNL1		-0.1727
7		C		0.9392		-1.2898		-1.6348		C.ar		1		UNL1		-0.1603
8		C		0.0202		-2.0074		-2.4339		C.ar		1		UNL1		-0.1263
9		C		-0.5075		-3.1965		-1.9883		C.ar		1		UNL1		-0.1943
10		C		-0.1473		-3.7170		-0.7173		C.ar		1		UNL1		0.1439
11		C		-0.6777		-4.9486		-0.2472		C.ar		1		UNL1		-0.1908
12		C		-0.3337		-5.4456		0.9883		C.ar		1		UNL1		-0.1301
13		C		0.5571		-4.7231		1.8160		C.ar		1		UNL1		-0.1327
14		C		1.0914		-3.5262		1.3937		C.ar		1		UNL1		-0.2081
15		C		0.7658		-2.9859		0.1187		C.ar		1		UNL1		0.1163
16		N		1.1803		1.5021		1.0570		N.ar		1		UNL1		-0.5319
17		C		0.2437		0.8231		1.9880		C.3		1		UNL1		0.0942
18		O		-1.0974		0.9838		1.6413		O.3		1		UNL1		-0.4513
19		C		-1.5368		0.2809		0.4827		C.3		1		UNL1		-0.0977
20		C		-2.9502		0.7054		0.1621		C.ar		1		UNL1		0.1197
21		C		-3.3794		2.0136		0.4211		C.ar		1		UNL1		-0.1708
22		C		-4.6702		2.4177		0.0824		C.ar		1		UNL1		-0.2008
23		C		-5.5222		1.5019		-0.5244		C.ar		1		UNL1		0.3795
24		F		-6.7738		1.8889		-0.8556		F		1		UNL1		-0.3005
25		C		-5.1269		0.1978		-0.7956		C.ar		1		UNL1		-0.1980
26		C		-3.8352		-0.1939		-0.4423		C.ar		1		UNL1		-0.1829
27		C		1.0564		2.9023		1.0642		C.ar		1		UNL1		0.7946
28		O		0.3053		3.5003		1.8128		O.2		1		UNL1		-0.4987
29		N		1.8553		3.5536		0.1417		N.ar		1		UNL1		-0.7006
30		C		2.8178		3.0019		-0.7016		C.ar		1		UNL1		0.6095
31		O		3.4640		3.7128		-1.4583		O.2		1		UNL1		-0.5013
32		H		5.5361		0.5858		0.2004		H		1		UNL1		0.1505
33		H		5.7000		2.1735		-0.5834		H		1		UNL1		0.1689
34		H		6.2569		0.7117		-1.4152		H		1		UNL1		0.1499
35		H		3.8997		-0.1104		-1.5919		H		1		UNL1		0.1634
36		H		4.0919		1.4680		-2.3669		H		1		UNL1		0.1716
37		H		1.3590		-0.3620		-2.0101		H		1		UNL1		0.1526
38		H		-0.2532		-1.6143		-3.4088		H		1		UNL1		0.1456
39		H		-1.2031		-3.7589		-2.6059		H		1		UNL1		0.1407
40		H		-1.3653		-5.4938		-0.8891		H		1		UNL1		0.1386
41		H		-0.7471		-6.3891		1.3331		H		1		UNL1		0.1403
42		H		0.8194		-5.1145		2.7949		H		1		UNL1		0.1408
43		H		1.7688		-2.9830		2.0445		H		1		UNL1		0.1587
44		H		0.3500		1.2961		2.9639		H		1		UNL1		0.1878
45		H		0.5395		-0.2262		2.0357		H		1		UNL1		0.1719
46		H		-1.4843		-0.8055		0.6490		H		1		UNL1		0.1447
47		H		-0.8730		0.5094		-0.3640		H		1		UNL1		0.1490
48		H		-2.6990		2.7083		0.9029		H		1		UNL1		0.1739
49		H		-5.0211		3.4250		0.2822		H		1		UNL1		0.1478
50		H		-5.8250		-0.4895		-1.2623		H		1		UNL1		0.1428
51		H		-3.5149		-1.2142		-0.6409		H		1		UNL1		0.1319
52		H		1.7571		4.5628		0.1213		H		1		UNL1		0.3566
@<TRIPOS>BOND
1		38		8		1
2		39		9		1
3		8		9		ar
4		8		7		ar
5		36		2		1
6		37		7		1
7		9		10		ar
8		7		6		ar
9		35		2		1
10		31		30		2
11		34		1		1
12		2		1		1
13		2		3		1
14		50		25		1
15		40		11		1
16		24		23		1
17		25		23		ar
18		25		26		ar
19		1		33		1
20		1		32		1
21		10		11		ar
22		10		15		ar
23		30		3		ar
24		30		29		ar
25		51		26		1
26		3		4		ar
27		23		22		ar
28		26		20		ar
29		6		15		ar
30		6		5		1
31		47		19		1
32		11		12		ar
33		22		49		1
34		22		21		ar
35		15		14		ar
36		52		29		1
37		29		27		ar
38		20		21		ar
39		20		19		1
40		4		5		1
41		4		16		ar
42		21		48		1
43		19		46		1
44		19		18		1
45		12		41		1
46		12		13		ar
47		16		27		ar
48		16		17		1
49		27		28		2
50		14		13		ar
51		14		43		1
52		18		17		1
53		13		42		1
54		17		45		1
55		17		44		1

