@<TRIPOS>MOLECULE
SGF-2005-CPB-886-7P
 58 61 0 0 0
SMALL
MULLIKEN_CHARGES
****
Gaussian 16 #p B3LYP/6-31G* opt
@<TRIPOS>ATOM
1		C		-4.5804		-0.5218		0.5532		C.3		1		UNL1		-0.4464
2		C		-4.8384		0.9222		0.1034		C.3		1		UNL1		-0.0644
3		C		-4.8891		1.8713		1.3086		C.3		1		UNL1		-0.4509
4		C		-3.8777		1.3925		-1.0313		C.3		1		UNL1		-0.3417
5		C		-2.4680		1.8216		-0.6691		C.ar		1		UNL1		0.0455
6		C		-1.3298		1.0692		-0.7694		C.ar		1		UNL1		0.0087
7		S		-1.4291		-0.6136		-1.3760		S.3		1		UNL1		0.1923
8		C		-0.9398		-1.6261		0.0327		C.ar		1		UNL1		-0.1284
9		C		-0.9877		-1.1570		1.3289		C.ar		1		UNL1		-0.1541
10		C		-0.6421		-1.9971		2.4115		C.ar		1		UNL1		-0.1306
11		C		-0.2702		-3.3018		2.1919		C.ar		1		UNL1		-0.1944
12		C		-0.2180		-3.8221		0.8723		C.ar		1		UNL1		0.1475
13		C		0.1593		-5.1695		0.6252		C.ar		1		UNL1		-0.1921
14		C		0.2167		-5.6704		-0.6545		C.ar		1		UNL1		-0.1313
15		C		-0.0963		-4.8355		-1.7523		C.ar		1		UNL1		-0.1364
16		C		-0.4656		-3.5243		-1.5503		C.ar		1		UNL1		-0.2076
17		C		-0.5462		-2.9757		-0.2410		C.ar		1		UNL1		0.1199
18		N		-0.0455		1.5912		-0.5096		N.ar		1		UNL1		-0.5070
19		C		1.2059		0.9107		-0.9506		C.3		1		UNL1		0.0653
20		O		1.6875		-0.0473		-0.0616		O.3		1		UNL1		-0.4495
21		C		2.5267		0.4463		1.0026		C.3		1		UNL1		-0.1337
22		C		3.9192		0.7977		0.5266		C.ar		1		UNL1		0.1246
23		C		4.7559		-0.2047		0.0140		C.ar		1		UNL1		-0.1662
24		C		6.0419		0.1013		-0.4255		C.ar		1		UNL1		-0.1316
25		C		6.5098		1.4174		-0.3579		C.ar		1		UNL1		-0.1274
26		C		5.6828		2.4218		0.1442		C.ar		1		UNL1		-0.1314
27		C		4.3912		2.1140		0.5807		C.ar		1		UNL1		-0.1821
28		C		0.1216		2.8834		0.0002		C.ar		1		UNL1		0.7825
29		O		1.2071		3.3547		0.3092		O.2		1		UNL1		-0.5189
30		N		-1.0434		3.6122		0.1104		N.ar		1		UNL1		-0.6948
31		C		-2.3298		3.2391		-0.2842		C.ar		1		UNL1		0.6079
32		O		-3.2332		4.0630		-0.2671		O.2		1		UNL1		-0.5033
33		H		-4.5961		-1.2177		-0.2931		H		1		UNL1		0.1444
34		H		-5.3507		-0.8410		1.2658		H		1		UNL1		0.1375
35		H		-3.6110		-0.6282		1.0508		H		1		UNL1		0.1481
36		H		-5.8334		0.9378		-0.3656		H		1		UNL1		0.1282
37		H		-3.9345		1.8757		1.8508		H		1		UNL1		0.1291
38		H		-5.1032		2.8999		1.0076		H		1		UNL1		0.1734
39		H		-5.6619		1.5444		2.0146		H		1		UNL1		0.1356
40		H		-3.8407		0.6072		-1.7906		H		1		UNL1		0.1565
41		H		-4.3338		2.2726		-1.4970		H		1		UNL1		0.1718
42		H		-1.2861		-0.1339		1.5301		H		1		UNL1		0.1428
43		H		-0.6847		-1.5993		3.4217		H		1		UNL1		0.1365
44		H		-0.0143		-3.9536		3.0233		H		1		UNL1		0.1337
45		H		0.4037		-5.8012		1.4759		H		1		UNL1		0.1336
46		H		0.5063		-6.7035		-0.8258		H		1		UNL1		0.1342
47		H		-0.0401		-5.2303		-2.7630		H		1		UNL1		0.1348
48		H		-0.6888		-2.8980		-2.4083		H		1		UNL1		0.1542
49		H		1.9281		1.7094		-1.1277		H		1		UNL1		0.1888
50		H		0.9737		0.3902		-1.8776		H		1		UNL1		0.1862
51		H		2.0582		1.3060		1.4917		H		1		UNL1		0.1617
52		H		2.5571		-0.3845		1.7138		H		1		UNL1		0.1572
53		H		4.3896		-1.2271		-0.0410		H		1		UNL1		0.1359
54		H		6.6825		-0.6847		-0.8173		H		1		UNL1		0.1290
55		H		7.5145		1.6561		-0.6974		H		1		UNL1		0.1289
56		H		6.0384		3.4478		0.1925		H		1		UNL1		0.1309
57		H		3.7382		2.8983		0.9529		H		1		UNL1		0.1608
58		H		-0.9274		4.5712		0.4189		H		1		UNL1		0.3563
@<TRIPOS>BOND
1		47		15		1
2		48		16		1
3		50		19		1
4		40		4		1
5		15		16		ar
6		15		14		ar
7		16		17		ar
8		41		4		1
9		7		6		1
10		7		8		1
11		49		19		1
12		4		5		1
13		4		2		1
14		19		18		1
15		19		20		1
16		46		14		1
17		54		24		1
18		6		5		ar
19		6		18		ar
20		55		25		1
21		5		31		ar
22		14		13		ar
23		18		28		ar
24		24		25		ar
25		24		23		ar
26		36		2		1
27		25		26		ar
28		33		1		1
29		31		32		2
30		31		30		ar
31		17		8		ar
32		17		12		ar
33		20		21		1
34		53		23		1
35		28		30		ar
36		28		29		2
37		23		22		ar
38		8		9		ar
39		2		1		1
40		2		3		1
41		30		58		1
42		26		56		1
43		26		27		ar
44		22		27		ar
45		22		21		1
46		1		35		1
47		1		34		1
48		27		57		1
49		13		12		ar
50		13		45		1
51		12		11		ar
52		21		51		1
53		21		52		1
54		38		3		1
55		3		37		1
56		3		39		1
57		9		42		1
58		9		10		ar
59		11		10		ar
60		11		44		1
61		10		43		1

