@<TRIPOS>MOLECULE
SGF-2005-APALS-457-5G
 48 50 0 0 0
SMALL
MULLIKEN_CHARGES
****
Gaussian 16 #p B3LYP/6-31G* opt
@<TRIPOS>ATOM
1		C		6.0781		2.2067		-0.2467		C.3		1		UNL1		-0.4442
2		C		5.0756		1.9677		0.8979		C.3		1		UNL1		-0.3425
3		C		3.6614		1.7763		0.4111		C.ar		1		UNL1		0.0512
4		C		3.0616		0.5597		0.1647		C.ar		1		UNL1		0.0240
5		S		4.0077		-0.9344		0.4598		S.3		1		UNL1		0.1637
6		C		2.8924		-2.2846		0.0784		C.ar		1		UNL1		-0.0844
7		C		3.2997		-3.2086		-0.8914		C.ar		1		UNL1		-0.1502
8		C		2.5213		-4.3397		-1.1460		C.ar		1		UNL1		-0.1239
9		C		1.3282		-4.5392		-0.4507		C.ar		1		UNL1		-0.1306
10		C		0.9177		-3.6094		0.5086		C.ar		1		UNL1		-0.1348
11		C		1.7029		-2.4914		0.7884		C.ar		1		UNL1		-0.1307
12		N		1.7798		0.4048		-0.2979		N.ar		1		UNL1		-0.4804
13		C		1.0785		1.4767		-0.4885		C.ar		1		UNL1		0.3485
14		S		-0.6033		1.4329		-1.0916		S.3		1		UNL1		0.1572
15		C		-1.0036		-0.3558		-0.9093		C.3		1		UNL1		-0.5617
16		C		-1.8751		-0.6209		0.3223		C.2		1		UNL1		0.4233
17		O		-1.3624		-1.1084		1.3212		O.2		1		UNL1		-0.4613
18		C		-3.3221		-0.2858		0.2796		C.ar		1		UNL1		0.0853
19		C		-3.9618		0.2499		-0.8466		C.ar		1		UNL1		-0.1895
20		C		-5.3243		0.5449		-0.8362		C.ar		1		UNL1		-0.2004
21		C		-6.0747		0.3006		0.3223		C.ar		1		UNL1		0.3892
22		O		-7.4025		0.5464		0.4470		O.3		1		UNL1		-0.4969
23		C		-8.1028		1.0978		-0.6616		C.3		1		UNL1		-0.2218
24		C		-5.4462		-0.2382		1.4608		C.ar		1		UNL1		-0.1709
25		C		-4.0948		-0.5238		1.4350		C.ar		1		UNL1		-0.1614
26		N		1.5653		2.7268		-0.2766		N.ar		1		UNL1		-0.6562
27		C		2.8909		2.9810		0.1635		C.ar		1		UNL1		0.5833
28		O		3.2608		4.1400		0.3097		O.2		1		UNL1		-0.5259
29		H		7.0883		2.3534		0.1523		H		1		UNL1		0.1443
30		H		6.1046		1.3553		-0.9355		H		1		UNL1		0.1521
31		H		5.8029		3.1021		-0.8128		H		1		UNL1		0.1654
32		H		5.0852		2.8382		1.5626		H		1		UNL1		0.1698
33		H		5.3895		1.1027		1.4932		H		1		UNL1		0.1612
34		H		4.2197		-3.0400		-1.4428		H		1		UNL1		0.1479
35		H		2.8449		-5.0566		-1.8959		H		1		UNL1		0.1338
36		H		0.7192		-5.4159		-0.6550		H		1		UNL1		0.1324
37		H		-0.0145		-3.7471		1.0483		H		1		UNL1		0.1488
38		H		1.3746		-1.7762		1.5333		H		1		UNL1		0.1693
39		H		-0.0506		-0.8748		-0.7907		H		1		UNL1		0.2681
40		H		-1.4820		-0.6686		-1.8403		H		1		UNL1		0.1969
41		H		-3.4050		0.4492		-1.7573		H		1		UNL1		0.1390
42		H		-5.7863		0.9595		-1.7243		H		1		UNL1		0.1411
43		H		-9.1370		1.2096		-0.3330		H		1		UNL1		0.1792
44		H		-7.7008		2.0799		-0.9404		H		1		UNL1		0.1602
45		H		-8.0670		0.4288		-1.5306		H		1		UNL1		0.1590
46		H		-6.0479		-0.4177		2.3461		H		1		UNL1		0.1506
47		H		-3.5988		-0.9372		2.3068		H		1		UNL1		0.1684
48		H		0.9892		3.5515		-0.4113		H		1		UNL1		0.3544
@<TRIPOS>BOND
1		35		8		1
2		40		15		1
3		41		19		1
4		42		20		1
5		45		23		1
6		34		7		1
7		8		7		ar
8		8		9		ar
9		14		15		1
10		14		13		1
11		44		23		1
12		30		1		1
13		15		39		1
14		15		16		1
15		7		6		ar
16		19		20		ar
17		19		18		ar
18		20		21		ar
19		31		1		1
20		23		43		1
21		23		22		1
22		36		9		1
23		13		12		ar
24		13		26		ar
25		9		10		ar
26		48		26		1
27		12		4		ar
28		26		27		ar
29		1		29		1
30		1		2		1
31		6		5		1
32		6		11		ar
33		27		28		2
34		27		3		ar
35		4		3		ar
36		4		5		1
37		18		16		1
38		18		25		ar
39		21		22		1
40		21		24		ar
41		16		17		2
42		3		2		1
43		10		11		ar
44		10		37		1
45		11		38		1
46		2		33		1
47		2		32		1
48		25		24		ar
49		25		47		1
50		24		46		1

