@<TRIPOS>MOLECULE
SGF-2005-CPB-886-7K
 55 58 0 0 0
SMALL
MULLIKEN_CHARGES
****
Gaussian 16 #p B3LYP/6-31G* opt
@<TRIPOS>ATOM
1		C		3.2102		3.6155		-1.4304		C.3		1		UNL1		-0.4608
2		C		1.8580		2.9461		-1.7506		C.3		1		UNL1		-0.1452
3		C		1.0340		3.7902		-2.7447		C.3		1		UNL1		-0.4553
4		C		1.0597		2.6243		-0.4930		C.ar		1		UNL1		0.0433
5		C		0.6629		1.3693		-0.1184		C.ar		1		UNL1		0.0235
6		S		0.9989		-0.0429		-1.1774		S.3		1		UNL1		0.2057
7		C		2.2087		-0.9703		-0.2112		C.ar		1		UNL1		-0.1950
8		C		3.1717		-0.3234		0.5384		C.ar		1		UNL1		-0.1535
9		C		4.1486		-1.0588		1.2466		C.ar		1		UNL1		-0.1258
10		C		4.1731		-2.4316		1.1748		C.ar		1		UNL1		-0.1916
11		C		3.2067		-3.1331		0.4074		C.ar		1		UNL1		0.1466
12		C		3.2178		-4.5515		0.3241		C.ar		1		UNL1		-0.1917
13		C		2.2683		-5.2281		-0.4058		C.ar		1		UNL1		-0.1302
14		C		1.2530		-4.5105		-1.0802		C.ar		1		UNL1		-0.1351
15		C		1.2113		-3.1350		-1.0244		C.ar		1		UNL1		-0.2055
16		C		2.1863		-2.4019		-0.2927		C.ar		1		UNL1		0.1138
17		N		-0.0704		1.1191		1.0558		N.ar		1		UNL1		-0.5168
18		C		-0.6586		-0.2041		1.3669		C.3		1		UNL1		0.0573
19		O		-1.7766		-0.5142		0.5869		O.3		1		UNL1		-0.4565
20		C		-2.9809		0.1680		0.9497		C.3		1		UNL1		-0.1021
21		C		-4.1509		-0.4750		0.2435		C.ar		1		UNL1		0.1337
22		C		-4.2135		-1.8637		0.0751		C.ar		1		UNL1		-0.1598
23		C		-5.3208		-2.4516		-0.5355		C.ar		1		UNL1		-0.1325
24		C		-6.3832		-1.6605		-0.9789		C.ar		1		UNL1		-0.1273
25		C		-6.3278		-0.2760		-0.8144		C.ar		1		UNL1		-0.1288
26		C		-5.2142		0.3117		-0.2117		C.ar		1		UNL1		-0.1813
27		C		-0.4132		2.1510		1.9402		C.ar		1		UNL1		0.7886
28		O		-1.0515		1.9803		2.9677		O.2		1		UNL1		-0.5189
29		N		0.0233		3.3992		1.5498		N.ar		1		UNL1		-0.6966
30		C		0.6919		3.7565		0.3765		C.ar		1		UNL1		0.6075
31		O		0.9381		4.9364		0.1636		O.2		1		UNL1		-0.5014
32		H		3.7770		3.7578		-2.3579		H		1		UNL1		0.1428
33		H		3.0705		4.5902		-0.9580		H		1		UNL1		0.1835
34		H		3.8156		2.9885		-0.7649		H		1		UNL1		0.1364
35		H		2.0775		1.9935		-2.2383		H		1		UNL1		0.1631
36		H		1.6110		3.9473		-3.6636		H		1		UNL1		0.1422
37		H		0.1019		3.2815		-3.0167		H		1		UNL1		0.1413
38		H		0.7869		4.7670		-2.3219		H		1		UNL1		0.1800
39		H		3.1863		0.7611		0.5823		H		1		UNL1		0.1508
40		H		4.8896		-0.5249		1.8347		H		1		UNL1		0.1407
41		H		4.9330		-3.0000		1.7049		H		1		UNL1		0.1379
42		H		3.9965		-5.0944		0.8543		H		1		UNL1		0.1360
43		H		2.2906		-6.3130		-0.4601		H		1		UNL1		0.1369
44		H		0.4956		-5.0493		-1.6426		H		1		UNL1		0.1387
45		H		0.4158		-2.6005		-1.5333		H		1		UNL1		0.1701
46		H		-0.8990		-0.1687		2.4313		H		1		UNL1		0.1910
47		H		0.0822		-0.9739		1.1712		H		1		UNL1		0.1894
48		H		-2.9173		1.2318		0.6811		H		1		UNL1		0.1405
49		H		-3.1086		0.1204		2.0421		H		1		UNL1		0.1627
50		H		-3.3830		-2.4759		0.4125		H		1		UNL1		0.1390
51		H		-5.3552		-3.5304		-0.6651		H		1		UNL1		0.1287
52		H		-7.2460		-2.1202		-1.4536		H		1		UNL1		0.1287
53		H		-7.1457		0.3489		-1.1632		H		1		UNL1		0.1300
54		H		-5.1711		1.3927		-0.0958		H		1		UNL1		0.1254
55		H		-0.2318		4.1615		2.1681		H		1		UNL1		0.3559
@<TRIPOS>BOND
1		36		3		1
2		37		3		1
3		3		38		1
4		3		2		1
5		32		1		1
6		35		2		1
7		2		1		1
8		2		4		1
9		44		14		1
10		45		15		1
11		52		24		1
12		1		33		1
13		1		34		1
14		6		7		1
15		6		5		1
16		53		25		1
17		14		15		ar
18		14		13		ar
19		15		16		ar
20		24		25		ar
21		24		23		ar
22		25		26		ar
23		51		23		1
24		23		22		ar
25		4		5		ar
26		4		30		ar
27		43		13		1
28		13		12		ar
29		16		7		ar
30		16		11		ar
31		26		54		1
32		26		21		ar
33		7		8		ar
34		5		17		ar
35		22		21		ar
36		22		50		1
37		31		30		2
38		21		20		1
39		12		11		ar
40		12		42		1
41		30		29		ar
42		11		10		ar
43		8		39		1
44		8		9		ar
45		19		20		1
46		19		18		1
47		48		20		1
48		20		49		1
49		17		18		1
50		17		27		ar
51		47		18		1
52		10		9		ar
53		10		41		1
54		9		40		1
55		18		46		1
56		29		27		ar
57		29		55		1
58		27		28		2

