@<TRIPOS>MOLECULE
SGF-2005-CPB-886-7H
 48 50 0 0 0
SMALL
MULLIKEN_CHARGES
****
Gaussian 16 #p B3LYP/6-31G* opt
@<TRIPOS>ATOM
1		C		4.4140		-3.2261		-1.1362		C.3		1		UNL1		-0.4569
2		C		3.6198		-2.8828		0.1121		C.3		1		UNL1		-0.0143
3		O		3.1433		-1.5460		-0.0173		O.3		1		UNL1		-0.4664
4		C		2.3917		-1.1281		1.1014		C.3		1		UNL1		0.0838
5		N		1.8573		0.1943		0.8067		N.ar		1		UNL1		-0.5247
6		C		0.9582		0.3992		-0.2693		C.ar		1		UNL1		0.0242
7		S		0.2683		-1.1444		-0.9093		S.3		1		UNL1		0.1779
8		C		-1.5171		-1.0324		-0.7068		C.ar		1		UNL1		-0.1780
9		C		-2.2533		-1.4020		-1.8184		C.ar		1		UNL1		-0.1586
10		C		-3.6630		-1.4891		-1.7676		C.ar		1		UNL1		-0.1272
11		C		-4.3288		-1.1836		-0.6058		C.ar		1		UNL1		-0.1885
12		C		-3.6132		-0.8150		0.5648		C.ar		1		UNL1		0.1472
13		C		-4.2975		-0.5245		1.7754		C.ar		1		UNL1		-0.1908
14		C		-3.6091		-0.2050		2.9224		C.ar		1		UNL1		-0.1300
15		C		-2.1962		-0.1704		2.9051		C.ar		1		UNL1		-0.1403
16		C		-1.5012		-0.4376		1.7458		C.ar		1		UNL1		-0.1931
17		C		-2.1768		-0.7566		0.5380		C.ar		1		UNL1		0.1283
18		C		0.6799		1.6460		-0.7521		C.ar		1		UNL1		0.0482
19		C		-0.1241		2.0747		-1.9781		C.3		1		UNL1		-0.1403
20		C		0.0078		1.1971		-3.2319		C.3		1		UNL1		-0.4505
21		C		-1.5936		2.4046		-1.6416		C.3		1		UNL1		-0.4518
22		C		1.2326		2.8059		-0.0166		C.ar		1		UNL1		0.6025
23		O		1.0146		3.9787		-0.2907		O.2		1		UNL1		-0.5050
24		N		2.0546		2.4986		1.0660		N.ar		1		UNL1		-0.6966
25		C		2.4684		1.2564		1.4897		C.ar		1		UNL1		0.7879
26		O		3.2707		1.1099		2.3973		O.2		1		UNL1		-0.5111
27		H		3.7819		-3.1491		-2.0265		H		1		UNL1		0.1648
28		H		4.8005		-4.2489		-1.0706		H		1		UNL1		0.1473
29		H		5.2598		-2.5413		-1.2532		H		1		UNL1		0.1643
30		H		2.7687		-3.5719		0.2371		H		1		UNL1		0.1327
31		H		4.2505		-2.9685		1.0117		H		1		UNL1		0.1320
32		H		3.0158		-1.0201		1.9915		H		1		UNL1		0.1955
33		H		1.5702		-1.8264		1.2992		H		1		UNL1		0.1585
34		H		-1.7409		-1.6242		-2.7493		H		1		UNL1		0.1541
35		H		-4.2108		-1.7805		-2.6590		H		1		UNL1		0.1406
36		H		-5.4141		-1.2285		-0.5609		H		1		UNL1		0.1389
37		H		-5.3840		-0.5661		1.7773		H		1		UNL1		0.1361
38		H		-4.1455		0.0133		3.8415		H		1		UNL1		0.1377
39		H		-1.6521		0.0676		3.8150		H		1		UNL1		0.1393
40		H		-0.4192		-0.4070		1.7596		H		1		UNL1		0.1528
41		H		0.3321		3.0370		-2.2333		H		1		UNL1		0.1737
42		H		1.0501		0.9194		-3.4214		H		1		UNL1		0.1497
43		H		-0.3508		1.7694		-4.0960		H		1		UNL1		0.1406
44		H		-0.5816		0.2808		-3.1793		H		1		UNL1		0.1522
45		H		-1.6465		3.1261		-0.8207		H		1		UNL1		0.1604
46		H		-2.1620		1.5140		-1.3623		H		1		UNL1		0.1573
47		H		-2.0786		2.8559		-2.5156		H		1		UNL1		0.1399
48		H		2.4599		3.2862		1.5590		H		1		UNL1		0.3556
@<TRIPOS>BOND
1		43		20		1
2		42		20		1
3		20		44		1
4		20		19		1
5		34		9		1
6		35		10		1
7		47		21		1
8		41		19		1
9		27		1		1
10		19		21		1
11		19		18		1
12		9		10		ar
13		9		8		ar
14		10		11		ar
15		21		46		1
16		21		45		1
17		29		1		1
18		1		28		1
19		1		2		1
20		7		8		1
21		7		6		1
22		18		6		ar
23		18		22		ar
24		8		17		ar
25		11		36		1
26		11		12		ar
27		23		22		2
28		6		5		ar
29		3		2		1
30		3		4		1
31		22		24		ar
32		2		30		1
33		2		31		1
34		17		12		ar
35		17		16		ar
36		12		13		ar
37		5		4		1
38		5		25		ar
39		24		25		ar
40		24		48		1
41		4		33		1
42		4		32		1
43		25		26		2
44		16		40		1
45		16		15		ar
46		13		37		1
47		13		14		ar
48		15		14		ar
49		15		39		1
50		14		38		1

