@<TRIPOS>MOLECULE
SGF-2005-CPB-886-7F
 55 58 0 0 0
SMALL
MULLIKEN_CHARGES
****
Gaussian 16 #p B3LYP/6-31G* opt
@<TRIPOS>ATOM
1		C		0.5878		3.7064		-2.4365		C.3		1		UNL1		-0.4486
2		C		1.6424		3.0952		-1.4959		C.3		1		UNL1		-0.3268
3		C		1.0306		2.3979		-0.3035		C.ar		1		UNL1		0.0286
4		C		0.7507		1.0638		-0.2097		C.ar		1		UNL1		0.0415
5		S		1.1096		0.0077		-1.6256		S.3		1		UNL1		0.1597
6		C		2.1166		-1.3506		-0.9935		C.ar		1		UNL1		-0.1881
7		C		1.6562		-2.6251		-1.2726		C.ar		1		UNL1		-0.1566
8		C		2.4124		-3.7667		-0.9226		C.ar		1		UNL1		-0.1273
9		C		3.6157		-3.6202		-0.2756		C.ar		1		UNL1		-0.1867
10		C		4.1308		-2.3303		0.0211		C.ar		1		UNL1		0.1466
11		C		5.3848		-2.1751		0.6703		C.ar		1		UNL1		-0.1907
12		C		5.9025		-0.9264		0.9242		C.ar		1		UNL1		-0.1291
13		C		5.1848		0.2259		0.5287		C.ar		1		UNL1		-0.1392
14		C		3.9622		0.1131		-0.0959		C.ar		1		UNL1		-0.1942
15		C		3.3884		-1.1592		-0.3591		C.ar		1		UNL1		0.1313
16		N		0.1759		0.4969		0.9371		N.ar		1		UNL1		-0.5265
17		C		-0.5608		-0.7856		0.9626		C.3		1		UNL1		0.0768
18		O		-1.9471		-0.6135		0.8656		O.3		1		UNL1		-0.4534
19		C		-2.4388		-0.3263		-0.4423		C.3		1		UNL1		-0.0961
20		C		-3.9488		-0.3860		-0.4427		C.ar		1		UNL1		0.1318
21		C		-4.6773		0.4335		-1.3106		C.ar		1		UNL1		-0.1847
22		C		-6.0678		0.3360		-1.3615		C.ar		1		UNL1		-0.1275
23		C		-6.7377		-0.5684		-0.5382		C.ar		1		UNL1		-0.1768
24		C		-6.0276		-1.3883		0.3490		C.ar		1		UNL1		0.1747
25		C		-6.7521		-2.3390		1.2743		C.3		1		UNL1		-0.5277
26		C		-4.6317		-1.2897		0.3776		C.ar		1		UNL1		-0.2149
27		C		0.0104		1.2483		2.1194		C.ar		1		UNL1		0.7980
28		O		-0.3861		0.7646		3.1631		O.2		1		UNL1		-0.5004
29		N		0.3141		2.5891		1.9911		N.ar		1		UNL1		-0.6976
30		C		0.7392		3.2658		0.8467		C.ar		1		UNL1		0.6061
31		O		0.8990		4.4787		0.8683		O.2		1		UNL1		-0.5053
32		H		1.0744		4.2357		-3.2635		H		1		UNL1		0.1487
33		H		-0.0605		2.9327		-2.8642		H		1		UNL1		0.1451
34		H		-0.0388		4.4232		-1.8968		H		1		UNL1		0.1695
35		H		2.2733		2.3999		-2.0568		H		1		UNL1		0.1632
36		H		2.2788		3.9016		-1.1176		H		1		UNL1		0.1693
37		H		0.6963		-2.7507		-1.7653		H		1		UNL1		0.1535
38		H		2.0261		-4.7545		-1.1560		H		1		UNL1		0.1434
39		H		4.1975		-4.4921		0.0126		H		1		UNL1		0.1420
40		H		5.9325		-3.0691		0.9586		H		1		UNL1		0.1377
41		H		6.8633		-0.8220		1.4202		H		1		UNL1		0.1397
42		H		5.6030		1.2108		0.7168		H		1		UNL1		0.1420
43		H		3.4296		1.0070		-0.3946		H		1		UNL1		0.1606
44		H		-0.3784		-1.2312		1.9373		H		1		UNL1		0.1980
45		H		-0.1741		-1.4199		0.1669		H		1		UNL1		0.1599
46		H		-2.1028		0.6667		-0.7746		H		1		UNL1		0.1436
47		H		-2.0247		-1.0594		-1.1546		H		1		UNL1		0.1457
48		H		-4.1585		1.1470		-1.9471		H		1		UNL1		0.1212
49		H		-6.6308		0.9715		-2.0401		H		1		UNL1		0.1280
50		H		-7.8226		-0.6364		-0.5798		H		1		UNL1		0.1205
51		H		-7.6830		-2.7039		0.8268		H		1		UNL1		0.1543
52		H		-7.0168		-1.8472		2.2199		H		1		UNL1		0.1686
53		H		-6.1322		-3.2067		1.5237		H		1		UNL1		0.1565
54		H		-4.0612		-1.9125		1.0604		H		1		UNL1		0.1363
55		H		0.1611		3.1508		2.8213		H		1		UNL1		0.3555
@<TRIPOS>BOND
1		32		1		1
2		33		1		1
3		1		34		1
4		1		2		1
5		35		2		1
6		49		22		1
7		48		21		1
8		37		7		1
9		5		6		1
10		5		4		1
11		2		36		1
12		2		3		1
13		22		21		ar
14		22		23		ar
15		21		20		ar
16		7		6		ar
17		7		8		ar
18		38		8		1
19		47		19		1
20		6		15		ar
21		8		9		ar
22		46		19		1
23		50		23		1
24		23		24		ar
25		20		19		1
26		20		26		ar
27		19		18		1
28		43		14		1
29		15		14		ar
30		15		10		ar
31		3		4		ar
32		3		30		ar
33		9		39		1
34		9		10		ar
35		4		16		ar
36		14		13		ar
37		10		11		ar
38		45		17		1
39		24		26		ar
40		24		25		1
41		26		54		1
42		13		42		1
43		13		12		ar
44		11		12		ar
45		11		40		1
46		51		25		1
47		30		31		2
48		30		29		ar
49		18		17		1
50		12		41		1
51		16		17		1
52		16		27		ar
53		17		44		1
54		25		53		1
55		25		52		1
56		29		27		ar
57		29		55		1
58		27		28		2

