@<TRIPOS>MOLECULE
SGF-2005-CPB-886-12C
 54 57 0 0 0
SMALL
MULLIKEN_CHARGES
****
Gaussian 16 #p B3LYP/6-31G* opt
@<TRIPOS>ATOM
1		C		2.3062		4.8292		0.1158		C.3		1		UNL1		-0.4587
2		C		1.1877		4.3211		1.0431		C.3		1		UNL1		-0.3221
3		C		0.1701		3.4566		0.3322		C.ar		1		UNL1		0.0257
4		C		0.0622		2.0965		0.4103		C.ar		1		UNL1		0.0565
5		S		1.1170		1.2056		1.5683		S.3		1		UNL1		0.1663
6		C		2.1164		0.0912		0.5710		C.ar		1		UNL1		-0.2069
7		C		3.0225		0.6186		-0.3845		C.ar		1		UNL1		-0.1507
8		C		3.8599		-0.2006		-1.0958		C.ar		1		UNL1		-0.1885
9		C		3.8767		-1.5990		-0.8371		C.ar		1		UNL1		0.1256
10		C		4.7570		-2.4688		-1.5319		C.ar		1		UNL1		-0.1954
11		C		4.7925		-3.8181		-1.2579		C.ar		1		UNL1		-0.1300
12		C		3.9517		-4.3566		-0.2590		C.ar		1		UNL1		-0.1340
13		C		3.0803		-3.5392		0.4296		C.ar		1		UNL1		-0.2002
14		C		3.0019		-2.1485		0.1537		C.ar		1		UNL1		0.1119
15		C		2.0698		-1.2828		0.8374		C.ar		1		UNL1		0.2343
16		N		1.1872		-1.8222		1.7611		N.pl3		1		UNL1		-0.7996
17		N		-0.9319		1.3848		-0.2890		N.ar		1		UNL1		-0.5121
18		C		-1.0859		-0.0804		-0.1797		C.3		1		UNL1		0.0347
19		O		-1.5911		-0.4986		1.0627		O.3		1		UNL1		-0.4609
20		C		-3.0272		-0.4223		1.2069		C.3		1		UNL1		-0.1398
21		C		-3.7415		-1.5651		0.5225		C.ar		1		UNL1		0.1378
22		C		-3.7095		-2.8481		1.0881		C.ar		1		UNL1		-0.1687
23		C		-4.3477		-3.9168		0.4622		C.ar		1		UNL1		-0.1307
24		C		-5.0283		-3.7151		-0.7422		C.ar		1		UNL1		-0.1265
25		C		-5.0641		-2.4434		-1.3140		C.ar		1		UNL1		-0.1323
26		C		-4.4231		-1.3725		-0.6855		C.ar		1		UNL1		-0.1890
27		C		-1.8703		2.0360		-1.1006		C.ar		1		UNL1		0.7871
28		O		-2.7695		1.4571		-1.6964		O.2		1		UNL1		-0.5237
29		N		-1.7095		3.4009		-1.1818		N.ar		1		UNL1		-0.6966
30		C		-0.7750		4.1973		-0.5154		C.ar		1		UNL1		0.6081
31		O		-0.7878		5.4114		-0.6648		O.2		1		UNL1		-0.5037
32		H		2.9829		5.4906		0.6685		H		1		UNL1		0.1487
33		H		1.8892		5.3935		-0.7227		H		1		UNL1		0.1741
34		H		2.9007		3.9994		-0.2832		H		1		UNL1		0.1491
35		H		1.6230		3.7817		1.8855		H		1		UNL1		0.1675
36		H		0.6532		5.1885		1.4461		H		1		UNL1		0.1679
37		H		3.0278		1.6904		-0.5561		H		1		UNL1		0.1531
38		H		4.5339		0.2098		-1.8426		H		1		UNL1		0.1304
39		H		5.4134		-2.0439		-2.2874		H		1		UNL1		0.1344
40		H		5.4746		-4.4679		-1.7992		H		1		UNL1		0.1346
41		H		3.9987		-5.4163		-0.0248		H		1		UNL1		0.1332
42		H		2.4753		-3.9703		1.2213		H		1		UNL1		0.1318
43		H		0.3918		-1.2320		1.9894		H		1		UNL1		0.3722
44		H		0.8966		-2.7717		1.5689		H		1		UNL1		0.3267
45		H		-1.7322		-0.3745		-1.0063		H		1		UNL1		0.2039
46		H		-0.1071		-0.5367		-0.2937		H		1		UNL1		0.1875
47		H		-3.3899		0.5424		0.8359		H		1		UNL1		0.1587
48		H		-3.1880		-0.4550		2.2883		H		1		UNL1		0.1569
49		H		-3.1836		-3.0047		2.0277		H		1		UNL1		0.1261
50		H		-4.3210		-4.9051		0.9140		H		1		UNL1		0.1305
51		H		-5.5298		-4.5471		-1.2296		H		1		UNL1		0.1320
52		H		-5.5905		-2.2813		-2.2508		H		1		UNL1		0.1353
53		H		-4.4394		-0.3845		-1.1372		H		1		UNL1		0.1719
54		H		-2.3836		3.8849		-1.7644		H		1		UNL1		0.3555
@<TRIPOS>BOND
1		39		10		1
2		52		25		1
3		38		8		1
4		40		11		1
5		54		29		1
6		28		27		2
7		10		11		ar
8		10		9		ar
9		25		24		ar
10		25		26		ar
11		11		12		ar
12		51		24		1
13		29		27		ar
14		29		30		ar
15		53		26		1
16		27		17		ar
17		8		9		ar
18		8		7		ar
19		45		18		1
20		9		14		ar
21		24		23		ar
22		33		1		1
23		26		21		ar
24		31		30		2
25		37		7		1
26		30		3		ar
27		7		6		ar
28		46		18		1
29		17		18		1
30		17		4		ar
31		34		1		1
32		12		41		1
33		12		13		ar
34		18		19		1
35		1		32		1
36		1		2		1
37		14		13		ar
38		14		15		ar
39		3		4		ar
40		3		2		1
41		4		5		1
42		13		42		1
43		23		50		1
44		23		22		ar
45		21		22		ar
46		21		20		1
47		6		15		ar
48		6		5		1
49		47		20		1
50		15		16		1
51		2		36		1
52		2		35		1
53		19		20		1
54		22		49		1
55		20		48		1
56		44		16		1
57		16		43		1

