@<TRIPOS>MOLECULE
SGF-2005-CPB-886-7W
 49 51 0 0 0
SMALL
MULLIKEN_CHARGES
****
Gaussian 16 #p B3LYP/6-31G* opt
@<TRIPOS>ATOM
1		C		3.7568		-0.8439		-2.6466		C.3		1		UNL1		-0.4549
2		C		2.8415		-1.4866		-1.5842		C.3		1		UNL1		-0.1470
3		C		3.3767		-2.8634		-1.1398		C.3		1		UNL1		-0.4612
4		C		2.6064		-0.5504		-0.4049		C.ar		1		UNL1		0.0417
5		C		1.4005		0.0038		-0.0751		C.ar		1		UNL1		0.0307
6		S		-0.0320		-0.2547		-1.1297		S.3		1		UNL1		0.1801
7		C		-1.1299		-1.2402		-0.0885		C.ar		1		UNL1		-0.1943
8		C		-0.6216		-2.2591		0.6934		C.ar		1		UNL1		-0.1506
9		C		-1.4826		-3.0809		1.4543		C.ar		1		UNL1		-0.1264
10		C		-2.8442		-2.8976		1.3982		C.ar		1		UNL1		-0.1906
11		C		-3.4051		-1.8676		0.5986		C.ar		1		UNL1		0.1473
12		C		-4.8104		-1.6676		0.5362		C.ar		1		UNL1		-0.1925
13		C		-5.3506		-0.6539		-0.2204		C.ar		1		UNL1		-0.1294
14		C		-4.5007		0.2168		-0.9415		C.ar		1		UNL1		-0.1445
15		C		-3.1329		0.0524		-0.9113		C.ar		1		UNL1		-0.2119
16		C		-2.5417		-0.9979		-0.1540		C.ar		1		UNL1		0.1101
17		N		1.2305		0.8504		1.0374		N.ar		1		UNL1		-0.5220
18		C		0.0086		1.6058		1.2672		C.3		1		UNL1		0.0797
19		O		-0.0431		2.6659		0.3328		O.3		1		UNL1		-0.4853
20		C		-1.2640		3.4042		0.3752		C.3		1		UNL1		-0.0478
21		C		-1.4233		4.0487		-0.9934		C.3		1		UNL1		-0.0399
22		O		-1.4938		3.0667		-2.0160		O.3		1		UNL1		-0.6260
23		C		2.3028		1.1841		1.8834		C.ar		1		UNL1		0.7966
24		O		2.1987		1.9215		2.8480		O.2		1		UNL1		-0.5056
25		N		3.4981		0.5951		1.5318		N.ar		1		UNL1		-0.6981
26		C		3.7756		-0.2180		0.4313		C.ar		1		UNL1		0.6111
27		O		4.9220		-0.6032		0.2449		O.2		1		UNL1		-0.4994
28		H		3.8510		-1.5151		-3.5083		H		1		UNL1		0.1431
29		H		4.7555		-0.6565		-2.2449		H		1		UNL1		0.1811
30		H		3.3411		0.1052		-3.0045		H		1		UNL1		0.1411
31		H		1.8695		-1.6555		-2.0534		H		1		UNL1		0.1634
32		H		2.6998		-3.3395		-0.4200		H		1		UNL1		0.1361
33		H		3.4528		-3.5246		-2.0109		H		1		UNL1		0.1436
34		H		4.3648		-2.7783		-0.6829		H		1		UNL1		0.1847
35		H		0.4488		-2.4376		0.7212		H		1		UNL1		0.1523
36		H		-1.0572		-3.8699		2.0679		H		1		UNL1		0.1416
37		H		-3.5121		-3.5397		1.9667		H		1		UNL1		0.1388
38		H		-5.4532		-2.3354		1.1047		H		1		UNL1		0.1362
39		H		-6.4273		-0.5138		-0.2587		H		1		UNL1		0.1373
40		H		-4.9278		1.0285		-1.5235		H		1		UNL1		0.1441
41		H		-2.5077		0.7542		-1.4536		H		1		UNL1		0.1782
42		H		-0.8592		0.9501		1.1606		H		1		UNL1		0.1699
43		H		0.0660		1.9807		2.2912		H		1		UNL1		0.1927
44		H		-1.2343		4.1586		1.1763		H		1		UNL1		0.1380
45		H		-2.1115		2.7281		0.5614		H		1		UNL1		0.1434
46		H		-2.3559		4.6210		-1.0303		H		1		UNL1		0.1477
47		H		-0.5885		4.7455		-1.1678		H		1		UNL1		0.1396
48		H		-0.7330		2.4787		-1.8674		H		1		UNL1		0.4200
49		H		4.2884		0.8326		2.1213		H		1		UNL1		0.3574
@<TRIPOS>BOND
1		28		1		1
2		30		1		1
3		1		29		1
4		1		2		1
5		31		2		1
6		22		48		1
7		22		21		1
8		33		3		1
9		2		3		1
10		2		4		1
11		40		14		1
12		41		15		1
13		47		21		1
14		3		34		1
15		3		32		1
16		6		7		1
17		6		5		1
18		46		21		1
19		21		20		1
20		14		15		ar
21		14		13		ar
22		15		16		ar
23		4		5		ar
24		4		26		ar
25		39		13		1
26		13		12		ar
27		16		7		ar
28		16		11		ar
29		7		8		ar
30		5		17		ar
31		27		26		2
32		19		20		1
33		19		18		1
34		20		45		1
35		20		44		1
36		26		25		ar
37		12		11		ar
38		12		38		1
39		11		10		ar
40		8		35		1
41		8		9		ar
42		17		18		1
43		17		23		ar
44		42		18		1
45		18		43		1
46		10		9		ar
47		10		37		1
48		9		36		1
49		25		23		ar
50		25		49		1
51		23		24		2

