@<TRIPOS>MOLECULE
SGF-2005-CPB-886-11A
 44 46 0 0 0
SMALL
MULLIKEN_CHARGES
****
Gaussian 16 #p B3LYP/6-31G* opt
@<TRIPOS>ATOM
1		C		-3.7481		-1.1937		2.9140		C.3		1		UNL1		-0.4481
2		C		-2.8512		-1.8282		1.8356		C.3		1		UNL1		-0.3262
3		C		-2.8204		-1.0291		0.5544		C.ar		1		UNL1		0.0373
4		C		-1.8687		-0.1200		0.2003		C.ar		1		UNL1		0.0112
5		S		-0.5580		0.2925		1.3626		S.3		1		UNL1		0.2887
6		C		0.8708		-0.4079		0.5319		C.ar		1		UNL1		-0.1446
7		C		0.7309		-1.5665		-0.2762		C.ar		1		UNL1		-0.1617
8		C		1.8184		-2.1214		-0.9014		C.ar		1		UNL1		-0.1545
9		C		3.1189		-1.5710		-0.7639		C.ar		1		UNL1		0.1091
10		C		4.2412		-2.1733		-1.3891		C.ar		1		UNL1		-0.1914
11		C		5.5007		-1.6423		-1.2374		C.ar		1		UNL1		-0.1271
12		C		5.6813		-0.4837		-0.4481		C.ar		1		UNL1		-0.1342
13		C		4.6143		0.1329		0.1683		C.ar		1		UNL1		-0.1767
14		C		3.2993		-0.3898		0.0282		C.ar		1		UNL1		0.1452
15		C		2.1354		0.1609		0.6550		C.ar		1		UNL1		0.1783
16		N		2.2597		1.3786		1.4579		N.pl3		1		UNL1		0.3299
17		O		2.9336		2.3102		1.0135		O.2		1		UNL1		-0.3792
18		O		1.6467		1.4108		2.5270		O.2		1		UNL1		-0.3588
19		N		-1.9074		0.5823		-1.0173		N.ar		1		UNL1		-0.5202
20		C		-1.0433		1.7257		-1.2803		C.3		1		UNL1		0.0841
21		O		-1.5032		2.8113		-0.5125		O.3		1		UNL1		-0.4508
22		C		-0.6281		3.9255		-0.5874		C.3		1		UNL1		-0.2094
23		C		-2.9502		0.3937		-1.9428		C.ar		1		UNL1		0.7963
24		O		-3.0292		0.9921		-3.0006		O.2		1		UNL1		-0.5030
25		N		-3.8856		-0.5475		-1.5583		N.ar		1		UNL1		-0.7002
26		C		-3.9484		-1.2656		-0.3637		C.ar		1		UNL1		0.6108
27		O		-4.8721		-2.0377		-0.1521		O.2		1		UNL1		-0.4984
28		H		-3.7742		-1.8283		3.8067		H		1		UNL1		0.1503
29		H		-4.7728		-1.0818		2.5470		H		1		UNL1		0.1702
30		H		-3.3750		-0.2067		3.2093		H		1		UNL1		0.1544
31		H		-1.8376		-1.9525		2.2248		H		1		UNL1		0.1645
32		H		-3.2440		-2.8212		1.5939		H		1		UNL1		0.1701
33		H		-0.2492		-2.0166		-0.3861		H		1		UNL1		0.1624
34		H		1.6917		-3.0147		-1.5078		H		1		UNL1		0.1534
35		H		4.0838		-3.0676		-1.9864		H		1		UNL1		0.1441
36		H		6.3553		-2.1099		-1.7174		H		1		UNL1		0.1450
37		H		6.6774		-0.0681		-0.3255		H		1		UNL1		0.1473
38		H		4.7767		1.0265		0.7557		H		1		UNL1		0.1718
39		H		-1.1150		1.9303		-2.3520		H		1		UNL1		0.1900
40		H		-0.0086		1.4716		-1.0276		H		1		UNL1		0.1495
41		H		0.3752		3.6779		-0.2077		H		1		UNL1		0.1498
42		H		-1.0632		4.7071		0.0383		H		1		UNL1		0.1716
43		H		-0.5352		4.3000		-1.6182		H		1		UNL1		0.1413
44		H		-4.6474		-0.6899		-2.2123		H		1		UNL1		0.3579
@<TRIPOS>BOND
1		24		23		2
2		39		20		1
3		44		25		1
4		35		10		1
5		23		25		ar
6		23		19		ar
7		36		11		1
8		43		22		1
9		25		26		ar
10		34		8		1
11		10		11		ar
12		10		9		ar
13		20		40		1
14		20		19		1
15		20		21		1
16		11		12		ar
17		19		4		ar
18		8		9		ar
19		8		7		ar
20		9		14		ar
21		22		21		1
22		22		41		1
23		22		42		1
24		12		37		1
25		12		13		ar
26		33		7		1
27		26		27		2
28		26		3		ar
29		7		6		ar
30		14		13		ar
31		14		15		ar
32		13		38		1
33		4		3		ar
34		4		5		1
35		6		15		ar
36		6		5		1
37		3		2		1
38		15		16		1
39		17		16		2
40		16		18		2
41		32		2		1
42		2		31		1
43		2		1		1
44		29		1		1
45		1		30		1
46		1		28		1

