@<TRIPOS>MOLECULE
SGF-2005-CPB-886-7B
 49 52 0 0 0
SMALL
MULLIKEN_CHARGES
****
Gaussian 16 #p B3LYP/6-31G* opt
@<TRIPOS>ATOM
1		C		1.5462		0.7768		2.6130		C.3		1		UNL1		-0.5275
2		C		0.8331		1.3749		1.4326		C.ar		1		UNL1		0.0535
3		C		0.2803		0.6708		0.4034		C.ar		1		UNL1		0.0449
4		S		0.4096		-1.1190		0.2544		S.3		1		UNL1		0.1872
5		C		2.1635		-1.4688		0.4583		C.ar		1		UNL1		-0.1835
6		C		2.4844		-2.3915		1.4363		C.ar		1		UNL1		-0.1532
7		C		3.8127		-2.8438		1.6046		C.ar		1		UNL1		-0.1268
8		C		4.8137		-2.3490		0.8037		C.ar		1		UNL1		-0.1879
9		C		4.5279		-1.4025		-0.2161		C.ar		1		UNL1		0.1450
10		C		5.5575		-0.8991		-1.0559		C.ar		1		UNL1		-0.1903
11		C		5.2792		-0.0049		-2.0631		C.ar		1		UNL1		-0.1301
12		C		3.9476		0.4198		-2.2770		C.ar		1		UNL1		-0.1368
13		C		2.9260		-0.0435		-1.4774		C.ar		1		UNL1		-0.1940
14		C		3.1761		-0.9575		-0.4193		C.ar		1		UNL1		0.1338
15		N		-0.4619		1.2936		-0.6182		N.ar		1		UNL1		-0.5251
16		C		-1.2019		0.5112		-1.6263		C.3		1		UNL1		0.0534
17		O		-2.2419		-0.2445		-1.0704		O.3		1		UNL1		-0.4569
18		C		-3.3863		0.5183		-0.6710		C.3		1		UNL1		-0.1029
19		C		-4.5106		-0.4197		-0.3033		C.ar		1		UNL1		0.1328
20		C		-5.3755		-0.0986		0.7482		C.ar		1		UNL1		-0.1809
21		C		-6.4532		-0.9286		1.0616		C.ar		1		UNL1		-0.1288
22		C		-6.6692		-2.0979		0.3315		C.ar		1		UNL1		-0.1270
23		C		-5.8036		-2.4299		-0.7133		C.ar		1		UNL1		-0.1323
24		C		-4.7334		-1.5944		-1.0320		C.ar		1		UNL1		-0.1584
25		C		-0.6599		2.6832		-0.6455		C.ar		1		UNL1		0.7822
26		O		-1.3390		3.2501		-1.4885		O.2		1		UNL1		-0.5190
27		N		-0.0073		3.3661		0.3569		N.ar		1		UNL1		-0.6972
28		C		0.7210		2.8382		1.4299		C.ar		1		UNL1		0.5969
29		O		1.1915		3.5863		2.2751		O.2		1		UNL1		-0.5030
30		H		2.6061		0.5879		2.4051		H		1		UNL1		0.1774
31		H		1.4977		1.4836		3.4444		H		1		UNL1		0.1878
32		H		1.0924		-0.1717		2.9123		H		1		UNL1		0.1668
33		H		1.7041		-2.7659		2.0919		H		1		UNL1		0.1544
34		H		4.0342		-3.5700		2.3812		H		1		UNL1		0.1415
35		H		5.8413		-2.6785		0.9356		H		1		UNL1		0.1399
36		H		6.5758		-1.2409		-0.8871		H		1		UNL1		0.1368
37		H		6.0761		0.3715		-2.6981		H		1		UNL1		0.1382
38		H		3.7279		1.1170		-3.0808		H		1		UNL1		0.1389
39		H		1.9128		0.2928		-1.6611		H		1		UNL1		0.1484
40		H		-1.5617		1.2386		-2.3565		H		1		UNL1		0.1971
41		H		-0.5227		-0.2041		-2.0877		H		1		UNL1		0.1875
42		H		-3.1383		1.1647		0.1824		H		1		UNL1		0.1437
43		H		-3.6820		1.1789		-1.5012		H		1		UNL1		0.1609
44		H		-5.2048		0.8061		1.3279		H		1		UNL1		0.1260
45		H		-7.1164		-0.6659		1.8815		H		1		UNL1		0.1306
46		H		-7.5035		-2.7494		0.5777		H		1		UNL1		0.1295
47		H		-5.9625		-3.3423		-1.2823		H		1		UNL1		0.1305
48		H		-4.0547		-1.8556		-1.8378		H		1		UNL1		0.1406
49		H		-0.1267		4.3727		0.3461		H		1		UNL1		0.3553
@<TRIPOS>BOND
1		38		12		1
2		37		11		1
3		40		16		1
4		12		11		ar
5		12		13		ar
6		41		16		1
7		11		10		ar
8		48		24		1
9		39		13		1
10		16		17		1
11		16		15		1
12		43		18		1
13		26		25		2
14		13		14		ar
15		47		23		1
16		17		18		1
17		10		36		1
18		10		9		ar
19		24		23		ar
20		24		19		ar
21		23		22		ar
22		18		19		1
23		18		42		1
24		25		15		ar
25		25		27		ar
26		15		3		ar
27		14		9		ar
28		14		5		ar
29		19		20		ar
30		9		8		ar
31		4		3		1
32		4		5		1
33		22		46		1
34		22		21		ar
35		49		27		1
36		27		28		ar
37		3		2		ar
38		5		6		ar
39		20		21		ar
40		20		44		1
41		8		35		1
42		8		7		ar
43		21		45		1
44		28		2		ar
45		28		29		2
46		2		1		1
47		6		7		ar
48		6		33		1
49		7		34		1
50		30		1		1
51		1		32		1
52		1		31		1

