@<TRIPOS>MOLECULE
SGF-2005-CPB-886-7M
 48 50 0 0 0
SMALL
MULLIKEN_CHARGES
****
Gaussian 16 #p B3LYP/6-31G* opt
@<TRIPOS>ATOM
1		C		-2.6125		4.1708		2.3255		C.3		1		UNL1		-0.4440
2		C		-2.6580		2.7873		1.6712		C.3		1		UNL1		-0.2573
3		C		-1.6466		2.6543		0.5136		C.3		1		UNL1		-0.3283
4		C		-1.7154		1.3208		-0.1916		C.ar		1		UNL1		0.0197
5		C		-0.9472		0.2229		0.0870		C.ar		1		UNL1		0.0489
6		S		0.1469		0.3169		1.5120		S.3		1		UNL1		0.2007
7		C		1.7973		-0.1843		0.9931		C.ar		1		UNL1		-0.2277
8		C		2.3638		-1.2211		1.7140		C.ar		1		UNL1		-0.1476
9		C		3.7035		-1.6123		1.4903		C.ar		1		UNL1		-0.1272
10		C		4.4557		-0.9760		0.5318		C.ar		1		UNL1		-0.1871
11		C		3.9120		0.0914		-0.2315		C.ar		1		UNL1		0.1455
12		C		4.6877		0.7582		-1.2174		C.ar		1		UNL1		-0.1914
13		C		4.1685		1.8087		-1.9378		C.ar		1		UNL1		-0.1299
14		C		2.8443		2.2419		-1.6954		C.ar		1		UNL1		-0.1396
15		C		2.0619		1.6158		-0.7501		C.ar		1		UNL1		-0.1943
16		C		2.5605		0.5207		0.0046		C.ar		1		UNL1		0.1367
17		N		-1.0895		-0.9865		-0.6141		N.ar		1		UNL1		-0.5245
18		C		-0.3570		-2.2243		-0.2579		C.3		1		UNL1		0.0465
19		O		-0.7516		-2.7872		0.9604		O.3		1		UNL1		-0.4528
20		C		-2.0494		-3.3978		0.9922		C.3		1		UNL1		-0.0319
21		C		-2.1378		-4.6961		0.1966		C.3		1		UNL1		-0.4745
22		C		-2.0283		-1.1273		-1.6495		C.ar		1		UNL1		0.7851
23		O		-2.1942		-2.1648		-2.2752		O.2		1		UNL1		-0.5197
24		N		-2.7696		0.0038		-1.9128		N.ar		1		UNL1		-0.6971
25		C		-2.7290		1.2320		-1.2493		C.ar		1		UNL1		0.6084
26		O		-3.4882		2.1336		-1.5783		O.2		1		UNL1		-0.5078
27		H		-3.3376		4.2456		3.1437		H		1		UNL1		0.1447
28		H		-2.8464		4.9586		1.5993		H		1		UNL1		0.1486
29		H		-1.6190		4.3831		2.7397		H		1		UNL1		0.1428
30		H		-2.4525		2.0134		2.4230		H		1		UNL1		0.1410
31		H		-3.6649		2.5934		1.2825		H		1		UNL1		0.1544
32		H		-1.8690		3.4300		-0.2274		H		1		UNL1		0.1649
33		H		-0.6366		2.8297		0.8961		H		1		UNL1		0.1595
34		H		1.7599		-1.7520		2.4430		H		1		UNL1		0.1704
35		H		4.1244		-2.4278		2.0713		H		1		UNL1		0.1424
36		H		5.4829		-1.2792		0.3446		H		1		UNL1		0.1399
37		H		5.7073		0.4214		-1.3891		H		1		UNL1		0.1363
38		H		4.7731		2.3103		-2.6881		H		1		UNL1		0.1379
39		H		2.4407		3.0789		-2.2586		H		1		UNL1		0.1402
40		H		1.0501		1.9613		-0.5765		H		1		UNL1		0.1615
41		H		0.6982		-1.9913		-0.1555		H		1		UNL1		0.1863
42		H		-0.5101		-2.8931		-1.1040		H		1		UNL1		0.1949
43		H		-2.8116		-2.6829		0.6521		H		1		UNL1		0.1378
44		H		-2.2275		-3.5855		2.0552		H		1		UNL1		0.1506
45		H		-1.3491		-5.3908		0.5049		H		1		UNL1		0.1529
46		H		-3.1076		-5.1733		0.3807		H		1		UNL1		0.1476
47		H		-2.0589		-4.5168		-0.8797		H		1		UNL1		0.1817
48		H		-3.4563		-0.0901		-2.6527		H		1		UNL1		0.3549
@<TRIPOS>BOND
1		38		13		1
2		48		24		1
3		23		22		2
4		39		14		1
5		13		14		ar
6		13		12		ar
7		24		22		ar
8		24		25		ar
9		14		15		ar
10		22		17		ar
11		26		25		2
12		37		12		1
13		25		4		ar
14		12		11		ar
15		42		18		1
16		47		21		1
17		15		40		1
18		15		16		ar
19		17		18		1
20		17		5		ar
21		18		41		1
22		18		19		1
23		11		16		ar
24		11		10		ar
25		32		3		1
26		4		5		ar
27		4		3		1
28		16		7		ar
29		5		6		1
30		21		46		1
31		21		45		1
32		21		20		1
33		36		10		1
34		3		33		1
35		3		2		1
36		10		9		ar
37		43		20		1
38		19		20		1
39		20		44		1
40		7		6		1
41		7		8		ar
42		31		2		1
43		9		8		ar
44		9		35		1
45		28		1		1
46		2		1		1
47		2		30		1
48		8		34		1
49		1		29		1
50		1		27		1

