@<TRIPOS>MOLECULE
SGF-2005-CPB-886-7L
 58 61 0 0 0
SMALL
MULLIKEN_CHARGES
****
Gaussian 16 #p B3LYP/6-31G* opt
@<TRIPOS>ATOM
1		C		-7.1932		0.4000		-1.0666		C.3		1		UNL1		-0.5298
2		C		-5.9392		0.7563		-0.3013		C.ar		1		UNL1		0.1816
3		C		-5.9120		1.8615		0.5599		C.ar		1		UNL1		-0.1787
4		C		-4.7578		2.1767		1.2762		C.ar		1		UNL1		-0.1311
5		C		-3.6115		1.3901		1.1563		C.ar		1		UNL1		-0.1711
6		C		-3.6167		0.2844		0.2998		C.ar		1		UNL1		0.1104
7		C		-2.4071		-0.6263		0.1840		C.3		1		UNL1		-0.0991
8		O		-1.1505		0.0152		0.3831		O.3		1		UNL1		-0.4667
9		C		-0.7900		0.8959		-0.6609		C.3		1		UNL1		0.0896
10		N		0.4933		1.4928		-0.3232		N.ar		1		UNL1		-0.5235
11		C		1.7365		0.9331		-0.6676		C.ar		1		UNL1		0.0445
12		S		1.7761		-0.4544		-1.8183		S.3		1		UNL1		0.1650
13		C		0.8475		-1.8450		-1.1445		C.ar		1		UNL1		-0.1661
14		C		-0.0525		-2.4180		-2.0242		C.ar		1		UNL1		-0.1666
15		C		-0.7249		-3.6188		-1.6977		C.ar		1		UNL1		-0.1291
16		C		-0.5065		-4.2197		-0.4817		C.ar		1		UNL1		-0.1894
17		C		0.4112		-3.6635		0.4498		C.ar		1		UNL1		0.1445
18		C		0.6533		-4.2898		1.7015		C.ar		1		UNL1		-0.1929
19		C		1.5657		-3.7702		2.5904		C.ar		1		UNL1		-0.1291
20		C		2.2808		-2.5969		2.2582		C.ar		1		UNL1		-0.1420
21		C		2.0663		-1.9606		1.0553		C.ar		1		UNL1		-0.1925
22		C		1.1259		-2.4615		0.1186		C.ar		1		UNL1		0.1479
23		C		2.9269		1.5137		-0.3101		C.ar		1		UNL1		0.0272
24		C		4.3077		0.9692		-0.6650		C.3		1		UNL1		-0.1420
25		C		5.0195		1.8672		-1.6979		C.3		1		UNL1		-0.4549
26		C		5.1934		0.7387		0.5773		C.3		1		UNL1		-0.4646
27		C		2.8886		2.7777		0.4438		C.ar		1		UNL1		0.6104
28		O		3.8592		3.4464		0.7764		O.2		1		UNL1		-0.5052
29		N		1.6101		3.2097		0.7998		N.ar		1		UNL1		-0.7001
30		C		0.3973		2.6458		0.4743		C.ar		1		UNL1		0.8026
31		O		-0.6634		3.1311		0.8294		O.2		1		UNL1		-0.5067
32		C		-4.7767		-0.0130		-0.4249		C.ar		1		UNL1		-0.2388
33		H		-7.7083		1.2952		-1.4327		H		1		UNL1		0.1583
34		H		-7.9059		-0.1452		-0.4333		H		1		UNL1		0.1643
35		H		-6.9700		-0.2371		-1.9288		H		1		UNL1		0.1525
36		H		-6.7990		2.4833		0.6614		H		1		UNL1		0.1197
37		H		-4.7472		3.0456		1.9292		H		1		UNL1		0.1323
38		H		-2.7057		1.6500		1.6937		H		1		UNL1		0.1650
39		H		-2.4181		-1.1464		-0.7863		H		1		UNL1		0.1332
40		H		-2.4365		-1.3979		0.9616		H		1		UNL1		0.1697
41		H		-0.6965		0.3660		-1.6130		H		1		UNL1		0.1597
42		H		-1.5103		1.7105		-0.7560		H		1		UNL1		0.1896
43		H		-0.2433		-1.9420		-2.9816		H		1		UNL1		0.1504
44		H		-1.4204		-4.0511		-2.4115		H		1		UNL1		0.1393
45		H		-1.0264		-5.1371		-0.2169		H		1		UNL1		0.1388
46		H		0.1028		-5.1962		1.9419		H		1		UNL1		0.1352
47		H		1.7420		-4.2602		3.5438		H		1		UNL1		0.1374
48		H		3.0070		-2.1931		2.9582		H		1		UNL1		0.1387
49		H		2.6213		-1.0615		0.8199		H		1		UNL1		0.1602
50		H		4.1562		-0.0055		-1.1340		H		1		UNL1		0.1605
51		H		5.9843		1.4255		-1.9739		H		1		UNL1		0.1418
52		H		4.4229		1.9693		-2.6118		H		1		UNL1		0.1407
53		H		5.2024		2.8642		-1.2888		H		1		UNL1		0.1789
54		H		4.7026		0.0782		1.3021		H		1		UNL1		0.1378
55		H		6.1291		0.2563		0.2713		H		1		UNL1		0.1408
56		H		5.4339		1.6792		1.0762		H		1		UNL1		0.1870
57		H		1.5610		4.0663		1.3400		H		1		UNL1		0.3556
58		H		-4.7770		-0.8657		-1.1033		H		1		UNL1		0.1090
@<TRIPOS>BOND
1		43		14		1
2		52		25		1
3		44		15		1
4		14		15		ar
5		14		13		ar
6		51		25		1
7		35		1		1
8		12		13		1
9		12		11		1
10		25		53		1
11		25		24		1
12		15		16		ar
13		41		9		1
14		33		1		1
15		13		22		ar
16		50		24		1
17		58		32		1
18		1		34		1
19		1		2		1
20		39		7		1
21		42		9		1
22		11		10		ar
23		11		23		ar
24		24		23		1
25		24		26		1
26		9		10		1
27		9		8		1
28		16		45		1
29		16		17		ar
30		32		2		ar
31		32		6		ar
32		10		30		ar
33		23		27		ar
34		2		3		ar
35		22		17		ar
36		22		21		ar
37		7		6		1
38		7		8		1
39		7		40		1
40		55		26		1
41		6		5		ar
42		27		28		2
43		27		29		ar
44		17		18		ar
45		30		29		ar
46		30		31		2
47		3		36		1
48		3		4		ar
49		26		56		1
50		26		54		1
51		29		57		1
52		49		21		1
53		21		20		ar
54		5		4		ar
55		5		38		1
56		4		37		1
57		18		46		1
58		18		19		ar
59		20		19		ar
60		20		48		1
61		19		47		1

