@<TRIPOS>MOLECULE
SGF-2005-CPB-886-13
 59 62 0 0 0
SMALL
MULLIKEN_CHARGES
****
Gaussian 16 #p B3LYP/6-31G* opt
@<TRIPOS>ATOM
1		C		1.3671		-3.8421		-2.1238		C.3		1		UNL1		-0.4584
2		C		-0.0816		-3.3510		-1.9627		C.3		1		UNL1		-0.3297
3		C		-0.3680		-2.7392		-0.6086		C.ar		1		UNL1		0.0434
4		C		-0.3277		-1.4101		-0.3085		C.ar		1		UNL1		0.0260
5		S		0.0533		-0.2606		-1.6269		S.3		1		UNL1		0.2162
6		C		1.2088		0.9672		-1.0033		C.ar		1		UNL1		-0.1735
7		C		0.9616		2.2769		-1.5021		C.ar		1		UNL1		-0.1731
8		C		1.8387		3.3004		-1.2487		C.ar		1		UNL1		-0.1678
9		C		2.9872		3.0897		-0.4437		C.ar		1		UNL1		0.1147
10		C		3.8859		4.1469		-0.1419		C.ar		1		UNL1		-0.1911
11		C		4.9740		3.9360		0.6725		C.ar		1		UNL1		-0.1299
12		C		5.2021		2.6541		1.2267		C.ar		1		UNL1		-0.1346
13		C		4.3539		1.6067		0.9477		C.ar		1		UNL1		-0.1624
14		C		3.2292		1.7857		0.0981		C.ar		1		UNL1		0.1523
15		C		2.3338		0.7131		-0.2266		C.ar		1		UNL1		0.2506
16		N		2.5850		-0.5848		0.2927		N.am		1		UNL1		-0.7296
17		C		3.6576		-1.3809		-0.0781		C.2		1		UNL1		0.5861
18		C		3.7211		-2.7175		0.6466		C.3		1		UNL1		-0.5449
19		O		4.5018		-1.0213		-0.8790		O.2		1		UNL1		-0.4809
20		N		-0.5977		-0.9145		0.9857		N.ar		1		UNL1		-0.5409
21		C		-1.1487		0.4236		1.1817		C.3		1		UNL1		0.0800
22		O		-2.4865		0.4008		0.7350		O.3		1		UNL1		-0.4697
23		C		-3.1432		1.6513		0.9271		C.3		1		UNL1		-0.0945
24		C		-4.5167		1.6008		0.3029		C.ar		1		UNL1		0.1377
25		C		-4.6978		1.0476		-0.9712		C.ar		1		UNL1		-0.1637
26		C		-5.9604		1.0374		-1.5620		C.ar		1		UNL1		-0.1322
27		C		-7.0558		1.5872		-0.8909		C.ar		1		UNL1		-0.1266
28		C		-6.8821		2.1402		0.3779		C.ar		1		UNL1		-0.1284
29		C		-5.6188		2.1409		0.9727		C.ar		1		UNL1		-0.1818
30		C		-0.8664		-1.7963		2.0623		C.ar		1		UNL1		0.7871
31		O		-1.1168		-1.4090		3.1884		O.2		1		UNL1		-0.4992
32		N		-0.7993		-3.1331		1.7359		N.ar		1		UNL1		-0.6970
33		C		-0.6682		-3.6997		0.4615		C.ar		1		UNL1		0.6027
34		O		-0.7485		-4.9107		0.3193		O.2		1		UNL1		-0.4978
35		H		1.6157		-4.5717		-1.3465		H		1		UNL1		0.1615
36		H		1.4946		-4.3306		-3.0961		H		1		UNL1		0.1520
37		H		2.0777		-3.0108		-2.0701		H		1		UNL1		0.1669
38		H		-0.7574		-4.2054		-2.0702		H		1		UNL1		0.1766
39		H		-0.3232		-2.6469		-2.7625		H		1		UNL1		0.1629
40		H		0.0714		2.4512		-2.0990		H		1		UNL1		0.1559
41		H		1.6488		4.2926		-1.6498		H		1		UNL1		0.1414
42		H		3.6932		5.1295		-0.5654		H		1		UNL1		0.1359
43		H		5.6561		4.7511		0.8972		H		1		UNL1		0.1377
44		H		6.0562		2.4953		1.8790		H		1		UNL1		0.1381
45		H		4.5381		0.6323		1.3822		H		1		UNL1		0.1406
46		H		1.8695		-0.9959		0.8763		H		1		UNL1		0.3493
47		H		4.3857		-2.6247		1.5138		H		1		UNL1		0.1839
48		H		2.7461		-3.0687		0.9987		H		1		UNL1		0.1541
49		H		4.1517		-3.4604		-0.0273		H		1		UNL1		0.1946
50		H		-0.5591		1.1571		0.6279		H		1		UNL1		0.1659
51		H		-1.0862		0.6337		2.2527		H		1		UNL1		0.1863
52		H		-3.2172		1.8818		2.0014		H		1		UNL1		0.1421
53		H		-2.5417		2.4535		0.4641		H		1		UNL1		0.1403
54		H		-3.8468		0.6134		-1.4874		H		1		UNL1		0.1458
55		H		-6.0905		0.6000		-2.5485		H		1		UNL1		0.1322
56		H		-8.0392		1.5796		-1.3534		H		1		UNL1		0.1310
57		H		-7.7300		2.5624		0.9107		H		1		UNL1		0.1315
58		H		-5.4904		2.5617		1.9676		H		1		UNL1		0.1264
59		H		-1.0061		-3.7743		2.4941		H		1		UNL1		0.3581
@<TRIPOS>BOND
1		36		1		1
2		39		2		1
3		55		26		1
4		1		37		1
5		1		2		1
6		1		35		1
7		40		7		1
8		38		2		1
9		2		3		1
10		41		8		1
11		5		6		1
12		5		4		1
13		26		25		ar
14		26		27		ar
15		7		8		ar
16		7		6		ar
17		54		25		1
18		56		27		1
19		8		9		ar
20		6		15		ar
21		25		24		ar
22		27		28		ar
23		19		17		2
24		3		4		ar
25		3		33		ar
26		42		10		1
27		9		10		ar
28		9		14		ar
29		4		20		ar
30		15		14		ar
31		15		16		1
32		10		11		ar
33		17		16		1
34		17		18		1
35		49		18		1
36		14		13		ar
37		16		46		1
38		24		23		1
39		24		29		ar
40		34		33		2
41		28		57		1
42		28		29		ar
43		33		32		ar
44		53		23		1
45		50		21		1
46		18		48		1
47		18		47		1
48		11		43		1
49		11		12		ar
50		22		23		1
51		22		21		1
52		23		52		1
53		13		12		ar
54		13		45		1
55		29		58		1
56		20		21		1
57		20		30		ar
58		21		51		1
59		12		44		1
60		32		30		ar
61		32		59		1
62		30		31		2

