@<TRIPOS>MOLECULE
SGF-2005-APALS-457-6F
 44 46 0 0 0
SMALL
MULLIKEN_CHARGES
****
Gaussian 16 #p B3LYP/6-31G* opt
@<TRIPOS>ATOM
1		C		-4.9873		-2.5916		1.4367		C.3		1		UNL1		-0.4457
2		C		-4.6923		-2.3159		-0.0486		C.3		1		UNL1		-0.3309
3		C		-3.2975		-1.7892		-0.2748		C.ar		1		UNL1		0.0413
4		C		-2.9905		-0.4847		-0.5021		C.ar		1		UNL1		0.0588
5		S		-4.2249		0.8000		-0.6847		S.3		1		UNL1		0.1858
6		C		-3.3502		2.2471		-0.0666		C.ar		1		UNL1		-0.1641
7		C		-3.0492		2.3764		1.2976		C.ar		1		UNL1		-0.1260
8		C		-2.4157		3.5286		1.7604		C.ar		1		UNL1		-0.1183
9		C		-2.0995		4.5625		0.8742		C.ar		1		UNL1		-0.1250
10		C		-2.4099		4.4401		-0.4803		C.ar		1		UNL1		-0.1198
11		C		-3.0287		3.2811		-0.9561		C.ar		1		UNL1		-0.1467
12		N		-1.6672		-0.1069		-0.6870		N.ar		1		UNL1		-0.6370
13		C		-0.6761		-1.0475		-0.6199		C.ar		1		UNL1		0.3389
14		S		0.9610		-0.3541		-0.8855		S.3		1		UNL1		0.1397
15		C		2.0097		-1.8151		-0.4872		C.3		1		UNL1		-0.5479
16		C		2.9984		-1.4803		0.6311		C.2		1		UNL1		0.4190
17		O		2.7818		-1.8778		1.7639		O.2		1		UNL1		-0.4423
18		C		4.2144		-0.6721		0.3128		C.ar		1		UNL1		0.0791
19		C		5.1064		-0.3874		1.3619		C.ar		1		UNL1		-0.1568
20		C		6.2565		0.3580		1.1391		C.ar		1		UNL1		-0.1969
21		C		6.5089		0.8220		-0.1505		C.ar		1		UNL1		0.3935
22		F		7.6205		1.5454		-0.3747		F		1		UNL1		-0.2870
23		C		5.6508		0.5627		-1.2134		C.ar		1		UNL1		-0.2031
24		C		4.5025		-0.1892		-0.9741		C.ar		1		UNL1		-0.1821
25		N		-0.8755		-2.2988		-0.4162		N.ar		1		UNL1		-0.4937
26		C		-2.1903		-2.7748		-0.2159		C.ar		1		UNL1		0.5274
27		O		-2.3949		-3.9615		-0.0013		O.2		1		UNL1		-0.4934
28		H		-4.9308		-1.6706		2.0282		H		1		UNL1		0.1386
29		H		-4.2681		-3.3105		1.8383		H		1		UNL1		0.1802
30		H		-5.9932		-3.0098		1.5550		H		1		UNL1		0.1444
31		H		-5.4385		-1.6239		-0.4528		H		1		UNL1		0.1493
32		H		-4.7831		-3.2550		-0.6050		H		1		UNL1		0.1728
33		H		-3.3119		1.5786		1.9856		H		1		UNL1		0.1654
34		H		-2.1778		3.6234		2.8161		H		1		UNL1		0.1510
35		H		-1.6131		5.4617		1.2413		H		1		UNL1		0.1480
36		H		-2.1666		5.2418		-1.1718		H		1		UNL1		0.1481
37		H		-3.2681		3.1773		-2.0102		H		1		UNL1		0.1619
38		H		-1.4425		0.8758		-0.7889		H		1		UNL1		0.3638
39		H		2.5040		-2.1457		-1.4038		H		1		UNL1		0.1977
40		H		1.3184		-2.5893		-0.1431		H		1		UNL1		0.2681
41		H		4.8716		-0.7663		2.3509		H		1		UNL1		0.1772
42		H		6.9561		0.5859		1.9365		H		1		UNL1		0.1582
43		H		5.8885		0.9443		-2.2006		H		1		UNL1		0.1567
44		H		3.8334		-0.3912		-1.8047		H		1		UNL1		0.1520
@<TRIPOS>BOND
1		43		23		1
2		37		11		1
3		44		24		1
4		39		15		1
5		23		24		ar
6		23		21		ar
7		36		10		1
8		24		18		ar
9		11		10		ar
10		11		6		ar
11		14		13		1
12		14		15		1
13		38		12		1
14		12		13		ar
15		12		4		ar
16		5		4		1
17		5		6		1
18		13		25		ar
19		32		2		1
20		4		3		ar
21		15		40		1
22		15		16		1
23		10		9		ar
24		31		2		1
25		25		26		ar
26		22		21		1
27		3		26		ar
28		3		2		1
29		26		27		2
30		21		20		ar
31		6		7		ar
32		2		1		1
33		18		16		1
34		18		19		ar
35		16		17		2
36		9		35		1
37		9		8		ar
38		20		19		ar
39		20		42		1
40		7		8		ar
41		7		33		1
42		19		41		1
43		1		30		1
44		1		29		1
45		1		28		1
46		8		34		1

