@<TRIPOS>MOLECULE
SGF-2005-CPB-886-7J
 52 55 0 0 0
SMALL
MULLIKEN_CHARGES
****
Gaussian 16 #p B3LYP/6-31G* opt
@<TRIPOS>ATOM
1		O		3.6896		2.2823		1.5731		O.2		1		UNL1		-0.5098
2		C		2.6554		2.1823		0.9345		C.ar		1		UNL1		0.7919
3		N		2.0753		3.2533		0.2922		N.ar		1		UNL1		-0.6989
4		N		1.9289		0.9865		0.8084		N.ar		1		UNL1		-0.5292
5		C		2.5741		-0.2027		1.3432		C.3		1		UNL1		0.0843
6		O		3.0869		-0.9403		0.2562		O.3		1		UNL1		-0.4668
7		C		3.6721		-2.1758		0.6647		C.3		1		UNL1		-0.0260
8		C		4.2481		-2.8639		-0.5419		C.3		1		UNL1		-0.1061
9		C		4.3581		-4.3708		-0.5544		C.3		1		UNL1		-0.3238
10		C		3.3551		-3.6789		-1.4433		C.3		1		UNL1		-0.3021
11		C		0.7659		0.9032		0.0194		C.ar		1		UNL1		0.0288
12		S		0.0282		-0.7413		-0.0546		S.3		1		UNL1		0.1853
13		C		-1.5639		-0.4825		0.7528		C.ar		1		UNL1		-0.1723
14		C		-2.7220		-1.1308		0.2128		C.ar		1		UNL1		0.1170
15		C		-2.7100		-1.9013		-0.9829		C.ar		1		UNL1		-0.2032
16		C		-3.8539		-2.5118		-1.4465		C.ar		1		UNL1		-0.1349
17		C		-5.0741		-2.3847		-0.7419		C.ar		1		UNL1		-0.1307
18		C		-5.1248		-1.6378		0.4119		C.ar		1		UNL1		-0.1911
19		C		-3.9657		-0.9919		0.9205		C.ar		1		UNL1		0.1466
20		C		-4.0179		-0.2098		2.1033		C.ar		1		UNL1		-0.1913
21		C		-2.8872		0.4065		2.5865		C.ar		1		UNL1		-0.1253
22		C		-1.6522		0.2554		1.9178		C.ar		1		UNL1		-0.1531
23		C		0.2557		1.9731		-0.6601		C.ar		1		UNL1		0.0612
24		C		-0.9591		1.9163		-1.5757		C.3		1		UNL1		-0.1456
25		C		-0.5797		2.2486		-3.0339		C.3		1		UNL1		-0.4569
26		C		-2.1125		2.8104		-1.0768		C.3		1		UNL1		-0.4590
27		C		0.9367		3.2701		-0.5203		C.ar		1		UNL1		0.6070
28		O		0.5957		4.3223		-1.0457		O.2		1		UNL1		-0.5044
29		H		2.5705		4.1337		0.3809		H		1		UNL1		0.3555
30		H		1.8421		-0.7934		1.9064		H		1		UNL1		0.1588
31		H		3.3693		0.1444		2.0076		H		1		UNL1		0.1922
32		H		2.9086		-2.8135		1.1414		H		1		UNL1		0.1237
33		H		4.4576		-1.9828		1.4140		H		1		UNL1		0.1337
34		H		5.0522		-2.3109		-1.0227		H		1		UNL1		0.1545
35		H		3.9842		-4.9189		0.3072		H		1		UNL1		0.1510
36		H		5.2397		-4.8136		-1.0088		H		1		UNL1		0.1559
37		H		3.5437		-3.6483		-2.5126		H		1		UNL1		0.1550
38		H		2.3030		-3.7512		-1.1798		H		1		UNL1		0.1588
39		H		-1.7841		-2.0002		-1.5398		H		1		UNL1		0.1607
40		H		-3.8205		-3.0924		-2.3642		H		1		UNL1		0.1373
41		H		-5.9690		-2.8725		-1.1179		H		1		UNL1		0.1365
42		H		-6.0592		-1.5273		0.9569		H		1		UNL1		0.1357
43		H		-4.9678		-0.1085		2.6221		H		1		UNL1		0.1377
44		H		-2.9296		1.0018		3.4942		H		1		UNL1		0.1404
45		H		-0.7661		0.7304		2.3272		H		1		UNL1		0.1441
46		H		-1.3201		0.8856		-1.5683		H		1		UNL1		0.1525
47		H		-0.2248		3.2777		-3.1253		H		1		UNL1		0.1805
48		H		0.2029		1.5746		-3.4007		H		1		UNL1		0.1415
49		H		-1.4580		2.1274		-3.6791		H		1		UNL1		0.1394
50		H		-2.9858		2.6812		-1.7268		H		1		UNL1		0.1392
51		H		-1.8240		3.8640		-1.0904		H		1		UNL1		0.1790
52		H		-2.4103		2.5408		-0.0578		H		1		UNL1		0.1447
@<TRIPOS>BOND
1		49		25		1
2		48		25		1
3		47		25		1
4		25		24		1
5		37		10		1
6		40		16		1
7		50		26		1
8		24		46		1
9		24		26		1
10		24		23		1
11		39		15		1
12		16		15		ar
13		16		17		ar
14		10		38		1
15		10		9		1
16		10		8		1
17		41		17		1
18		51		26		1
19		26		52		1
20		28		27		2
21		34		8		1
22		36		9		1
23		15		14		ar
24		17		18		ar
25		23		27		ar
26		23		11		ar
27		9		8		1
28		9		35		1
29		8		7		1
30		27		3		ar
31		12		11		1
32		12		13		1
33		11		4		ar
34		14		13		ar
35		14		19		ar
36		6		7		1
37		6		5		1
38		3		29		1
39		3		2		ar
40		18		19		ar
41		18		42		1
42		7		32		1
43		7		33		1
44		13		22		ar
45		4		2		ar
46		4		5		1
47		19		20		ar
48		2		1		2
49		5		30		1
50		5		31		1
51		22		45		1
52		22		21		ar
53		20		21		ar
54		20		43		1
55		21		44		1

