@<TRIPOS>MOLECULE
SYL-2019-BC-102974-3-18
 48 52 0 0 0
SMALL
MULLIKEN_CHARGES
****
Gaussian 16 #p B3LYP/6-31G* opt
@<TRIPOS>ATOM
1		N		-7.6996		-5.5388		0.1216		N.1		1		UNL1		-0.4841
2		C		-6.8480		-4.7450		0.1226		C.1		1		UNL1		0.2274
3		C		-5.8005		-3.7704		0.1240		C.ar		1		UNL1		0.1316
4		C		-4.4545		-4.1696		0.2061		C.ar		1		UNL1		-0.1404
5		C		-3.4463		-3.2205		0.2070		C.ar		1		UNL1		-0.2058
6		C		-3.7448		-1.8448		0.1262		C.ar		1		UNL1		0.3825
7		N		-2.6602		-0.9673		0.1329		N.pl3		1		UNL1		-0.7761
8		C		-2.5824		0.4095		0.0776		C.ar		1		UNL1		0.6984
9		N		-1.2933		0.8530		0.1167		N.ar		1		UNL1		-0.5699
10		C		-1.1046		2.1530		0.0726		C.ar		1		UNL1		0.5698
11		O		0.1424		2.6857		0.1265		O.3		1		UNL1		-0.5619
12		C		1.2775		1.8808		0.1113		C.ar		1		UNL1		0.3670
13		C		2.1857		2.0392		1.1543		C.ar		1		UNL1		-0.1616
14		C		3.3818		1.3273		1.1260		C.ar		1		UNL1		-0.1916
15		C		3.7045		0.4468		0.0788		C.ar		1		UNL1		0.0161
16		C		4.9907		-0.2923		0.0652		C.ar		1		UNL1		0.1140
17		C		5.0741		-1.6280		-0.3685		C.ar		1		UNL1		-0.1687
18		C		6.2813		-2.3151		-0.3400		C.ar		1		UNL1		-0.1433
19		C		7.4452		-1.6786		0.1219		C.ar		1		UNL1		0.1350
20		C		8.6921		-2.3848		0.1522		C.1		1		UNL1		0.2375
21		N		9.7043		-2.9579		0.1783		N.1		1		UNL1		-0.4751
22		C		7.3779		-0.3432		0.5507		C.ar		1		UNL1		-0.1418
23		C		6.1653		0.3346		0.5185		C.ar		1		UNL1		-0.1780
24		C		2.7496		0.3290		-0.9430		C.ar		1		UNL1		0.3271
25		F		2.9979		-0.4850		-1.9926		F		1		UNL1		-0.2889
26		C		1.5519		1.0284		-0.9552		C.ar		1		UNL1		-0.2139
27		C		-2.1788		3.0505		-0.0118		C.ar		1		UNL1		-0.2335
28		S		-2.2107		4.7922		-0.0836		S.2		1		UNL1		0.2835
29		C		-3.9568		4.7523		-0.1611		C.ar		1		UNL1		-0.3436
30		C		-4.4850		3.4980		-0.1342		C.ar		1		UNL1		-0.0978
31		C		-3.4687		2.4859		-0.0468		C.ar		1		UNL1		0.3294
32		N		-3.6809		1.1511		-0.0025		N.ar		1		UNL1		-0.5765
33		C		-5.0908		-1.4429		0.0438		C.ar		1		UNL1		-0.1587
34		C		-6.0978		-2.4001		0.0435		C.ar		1		UNL1		-0.1535
35		H		-4.2082		-5.2246		0.2690		H		1		UNL1		0.1586
36		H		-2.4090		-3.5413		0.2711		H		1		UNL1		0.1362
37		H		-1.7452		-1.3937		0.1990		H		1		UNL1		0.3478
38		H		1.9480		2.7091		1.9733		H		1		UNL1		0.1557
39		H		4.0785		1.4341		1.9515		H		1		UNL1		0.1537
40		H		4.1848		-2.1352		-0.7231		H		1		UNL1		0.1538
41		H		6.3301		-3.3478		-0.6700		H		1		UNL1		0.1629
42		H		8.2768		0.1563		0.8973		H		1		UNL1		0.1624
43		H		6.1319		1.3744		0.8288		H		1		UNL1		0.1482
44		H		0.8635		0.9036		-1.7814		H		1		UNL1		0.1677
45		H		-4.4960		5.6888		-0.2238		H		1		UNL1		0.1897
46		H		-5.5442		3.2750		-0.1731		H		1		UNL1		0.1632
47		H		-5.3271		-0.3907		-0.0181		H		1		UNL1		0.1875
48		H		-7.1342		-2.0835		-0.0202		H		1		UNL1		0.1579
@<TRIPOS>BOND
1		25		24		1
2		44		26		1
3		26		24		ar
4		26		12		ar
5		24		15		ar
6		40		17		1
7		41		18		1
8		17		18		ar
9		17		16		ar
10		18		19		ar
11		45		29		1
12		46		30		1
13		29		30		ar
14		29		28		ar
15		30		31		ar
16		28		27		ar
17		31		27		ar
18		31		32		ar
19		48		34		1
20		47		33		1
21		27		10		ar
22		32		8		ar
23		34		33		ar
24		34		3		ar
25		33		6		ar
26		16		15		1
27		16		23		ar
28		10		9		ar
29		10		11		1
30		8		9		ar
31		8		7		1
32		15		14		ar
33		12		11		1
34		12		13		ar
35		1		2		3
36		19		20		1
37		19		22		ar
38		2		3		1
39		3		4		ar
40		6		7		1
41		6		5		ar
42		7		37		1
43		20		21		3
44		4		5		ar
45		4		35		1
46		5		36		1
47		23		22		ar
48		23		43		1
49		22		42		1
50		14		13		ar
51		14		39		1
52		13		38		1

