@<TRIPOS>MOLECULE
SYL-2019-jmc-11603-3-12
 48 52 0 0 0
SMALL
MULLIKEN_CHARGES

@<TRIPOS>ATOM
1		C		5.8396		-1.9311		0.0697		C.ar		1		UNL1		-0.2132
2		C		4.4701		-2.1326		0.1290		C.ar		1		UNL1		0.3547
3		C		3.5398		-1.1433		-0.2198		C.ar		1		UNL1		0.0218
4		C		4.0546		0.0876		-0.6588		C.ar		1		UNL1		-0.1789
5		C		5.4229		0.3241		-0.7347		C.ar		1		UNL1		-0.1377
6		C		6.3235		-0.6880		-0.3658		C.ar		1		UNL1		0.1377
7		C		1.4519		-1.9110		0.9683		C.ar		1		UNL1		0.3519
8		C		0.0821		-2.1301		1.0389		C.ar		1		UNL1		-0.2390
9		C		-0.6945		-1.8124		-0.0701		C.ar		1		UNL1		0.3667
10		C		-0.1232		-1.2885		-1.2289		C.ar		1		UNL1		-0.1425
11		C		1.2526		-1.0784		-1.2629		C.ar		1		UNL1		-0.1841
12		C		2.0791		-1.3896		-0.1701		C.ar		1		UNL1		0.0102
13		C		-2.9917		-1.1590		-0.0507		C.ar		1		UNL1		0.5644
14		C		-4.3295		-1.5558		-0.1165		C.ar		1		UNL1		-0.2327
15		C		-5.2923		-0.5219		-0.1360		C.ar		1		UNL1		0.3262
16		N		-4.9554		0.7802		-0.0947		N.ar		1		UNL1		-0.5821
17		C		-3.6428		1.0253		-0.0309		C.ar		1		UNL1		0.6895
18		N		-2.6440		0.1144		-0.0059		N.ar		1		UNL1		-0.5529
19		C		0.2849		3.2341		0.3136		C.ar		1		UNL1		-0.1600
20		C		-0.8585		2.4492		0.2388		C.ar		1		UNL1		-0.1635
21		C		-2.1179		3.0592		0.0860		C.ar		1		UNL1		0.3825
22		C		-2.1875		4.4666		0.0154		C.ar		1		UNL1		-0.2044
23		C		-1.0435		5.2432		0.0889		C.ar		1		UNL1		-0.1406
24		C		0.2157		4.6348		0.2378		C.ar		1		UNL1		0.1327
25		C		7.7373		-0.4595		-0.4364		C.1		1		UNL1		0.2426
26		N		8.8840		-0.2741		-0.4970		N.1		1		UNL1		-0.4694
27		O		-2.0498		-2.1344		-0.0168		O.3		1		UNL1		-0.5624
28		N		-3.3266		2.3695		0.0068		N.pl3		1		UNL1		-0.7744
29		C		1.4056		5.4258		0.3075		C.1		1		UNL1		0.2246
30		N		2.3774		6.0648		0.3603		N.1		1		UNL1		-0.4839
31		S		-5.0523		-3.1427		-0.1836		S.2		1		UNL1		0.2826
32		C		-6.6403		-2.4096		-0.2371		C.ar		1		UNL1		-0.3425
33		C		-6.6286		-1.0498		-0.2067		C.ar		1		UNL1		-0.0965
34		F		4.0261		-3.3426		0.5130		F		1		UNL1		-0.2804
35		F		2.1904		-2.1879		2.0574		F		1		UNL1		-0.2812
36		H		6.5123		-2.7342		0.3477		H		1		UNL1		0.1771
37		H		3.3599		0.8776		-0.9283		H		1		UNL1		0.1591
38		H		5.7980		1.2859		-1.0669		H		1		UNL1		0.1710
39		H		-0.3631		-2.5332		1.9409		H		1		UNL1		0.1694
40		H		-0.7439		-1.0579		-2.0870		H		1		UNL1		0.1565
41		H		1.7094		-0.6867		-2.1667		H		1		UNL1		0.1565
42		H		1.2513		2.7552		0.4376		H		1		UNL1		0.1535
43		H		-0.7883		1.3734		0.2964		H		1		UNL1		0.1920
44		H		-3.1549		4.9493		-0.1021		H		1		UNL1		0.1387
45		H		-1.1162		6.3243		0.0302		H		1		UNL1		0.1593
46		H		-4.1609		2.9407		-0.0420		H		1		UNL1		0.3491
47		H		-7.5077		-3.0553		-0.2890		H		1		UNL1		0.1894
48		H		-7.5127		-0.4247		-0.2316		H		1		UNL1		0.1627
@<TRIPOS>BOND
1		41		11		1
2		40		10		1
3		11		10		ar
4		11		12		ar
5		10		9		ar
6		38		5		1
7		37		4		1
8		5		4		ar
9		5		6		ar
10		4		3		ar
11		26		25		3
12		25		6		1
13		6		1		ar
14		47		32		1
15		32		33		ar
16		32		31		ar
17		48		33		1
18		3		12		1
19		3		2		ar
20		33		15		ar
21		31		14		ar
22		12		7		ar
23		15		14		ar
24		15		16		ar
25		14		13		ar
26		44		22		1
27		16		17		ar
28		9		27		1
29		9		8		ar
30		13		27		1
31		13		18		ar
32		46		28		1
33		17		18		ar
34		17		28		1
35		28		21		1
36		22		21		ar
37		22		23		ar
38		45		23		1
39		1		2		ar
40		1		36		1
41		21		20		ar
42		23		24		ar
43		2		34		1
44		24		29		1
45		24		19		ar
46		20		43		1
47		20		19		ar
48		29		30		3
49		19		42		1
50		7		8		ar
51		7		35		1
52		8		39		1

