@<TRIPOS>MOLECULE
SYL-2019-BC-102974-3-27
 52 56 0 0 0
SMALL
MULLIKEN_CHARGES

@<TRIPOS>ATOM
1		C		5.5971		-0.4373		0.6705		C.ar		1		UNL1		-0.1401
2		C		4.2141		-0.5575		0.6034		C.ar		1		UNL1		-0.1825
3		C		3.6062		-1.5500		-0.1861		C.ar		1		UNL1		0.0959
4		C		4.4368		-2.4224		-0.9115		C.ar		1		UNL1		-0.1784
5		C		5.8207		-2.3131		-0.8527		C.ar		1		UNL1		-0.1406
6		C		6.4138		-1.3178		-0.0582		C.ar		1		UNL1		0.1334
7		C		1.3475		-1.4778		0.8990		C.ar		1		UNL1		-0.2680
8		C		-0.0433		-1.5919		0.8563		C.ar		1		UNL1		0.3891
9		C		-0.6579		-1.8863		-0.3762		C.ar		1		UNL1		0.3113
10		C		0.0997		-2.0881		-1.5178		C.ar		1		UNL1		-0.1688
11		C		1.4908		-1.9869		-1.4631		C.ar		1		UNL1		-0.1947
12		C		2.1287		-1.6740		-0.2560		C.ar		1		UNL1		0.0971
13		C		-2.8648		-1.0181		-0.3091		C.ar		1		UNL1		0.5882
14		C		-4.2377		-1.2669		-0.2287		C.ar		1		UNL1		-0.2345
15		C		-5.0787		-0.1374		-0.1240		C.ar		1		UNL1		0.3251
16		N		-4.5997		1.1206		-0.0952		N.ar		1		UNL1		-0.5850
17		C		-3.2695		1.2205		-0.1791		C.ar		1		UNL1		0.6879
18		N		-2.3808		0.2107		-0.2926		N.ar		1		UNL1		-0.5523
19		C		0.8861		2.9848		-0.3784		C.ar		1		UNL1		-0.1624
20		C		-0.3414		2.3348		-0.3699		C.ar		1		UNL1		-0.1661
21		C		-1.5240		3.0717		-0.1640		C.ar		1		UNL1		0.3828
22		C		-1.4304		4.4674		0.0220		C.ar		1		UNL1		-0.2052
23		C		-0.2037		5.1092		0.0122		C.ar		1		UNL1		-0.1412
24		C		0.9784		4.3732		-0.1859		C.ar		1		UNL1		0.1306
25		C		7.8410		-1.2052		0.0098		C.1		1		UNL1		0.2379
26		N		8.9999		-1.1185		0.0656		N.1		1		UNL1		-0.4755
27		O		-2.0363		-2.0817		-0.4354		O.3		1		UNL1		-0.5616
28		N		-2.8036		2.5223		-0.1375		N.pl3		1		UNL1		-0.7745
29		C		2.2514		5.0256		-0.1878		C.1		1		UNL1		0.2246
30		N		3.2892		5.5536		-0.1845		N.1		1		UNL1		-0.4855
31		S		-5.1310		-2.7658		-0.2327		S.2		1		UNL1		0.2794
32		C		-6.6268		-1.8681		-0.0979		C.ar		1		UNL1		-0.3435
33		C		-6.4640		-0.5184		-0.0501		C.ar		1		UNL1		-0.0978
34		O		-0.8752		-1.4550		1.9187		O.3		1		UNL1		-0.5112
35		C		-0.3150		-1.0899		3.1738		C.3		1		UNL1		-0.2218
36		H		6.0517		0.3407		1.2753		H		1		UNL1		0.1661
37		H		3.5940		0.1461		1.1509		H		1		UNL1		0.1477
38		H		3.9906		-3.2124		-1.5079		H		1		UNL1		0.1486
39		H		6.4497		-2.9997		-1.4102		H		1		UNL1		0.1619
40		H		1.8424		-1.2736		1.8409		H		1		UNL1		0.1476
41		H		-0.4108		-2.3159		-2.4480		H		1		UNL1		0.1532
42		H		2.0731		-2.1157		-2.3696		H		1		UNL1		0.1433
43		H		1.7914		2.4079		-0.5408		H		1		UNL1		0.1558
44		H		-0.3960		1.2672		-0.5214		H		1		UNL1		0.1938
45		H		-2.3366		5.0478		0.1795		H		1		UNL1		0.1370
46		H		-0.1513		6.1831		0.1600		H		1		UNL1		0.1575
47		H		-3.5670		3.1784		-0.0313		H		1		UNL1		0.3473
48		H		-7.5596		-2.4162		-0.0611		H		1		UNL1		0.1863
49		H		-7.2723		0.1978		0.0336		H		1		UNL1		0.1599
50		H		-1.1581		-1.0101		3.8613		H		1		UNL1		0.1802
51		H		0.2007		-0.1234		3.1131		H		1		UNL1		0.1619
52		H		0.3813		-1.8551		3.5394		H		1		UNL1		0.1599
@<TRIPOS>BOND
1		41		10		1
2		42		11		1
3		10		11		ar
4		10		9		ar
5		38		4		1
6		11		12		ar
7		39		5		1
8		4		5		ar
9		4		3		ar
10		5		6		ar
11		43		19		1
12		44		20		1
13		27		9		1
14		27		13		1
15		19		20		ar
16		19		24		ar
17		9		8		ar
18		20		21		ar
19		13		18		ar
20		13		14		ar
21		18		17		ar
22		12		3		1
23		12		7		ar
24		31		14		ar
25		31		32		ar
26		14		15		ar
27		29		24		1
28		29		30		3
29		3		2		ar
30		24		23		ar
31		17		28		1
32		17		16		ar
33		21		28		1
34		21		22		ar
35		28		47		1
36		15		16		ar
37		15		33		ar
38		32		48		1
39		32		33		ar
40		6		25		1
41		6		1		ar
42		33		49		1
43		25		26		3
44		23		22		ar
45		23		46		1
46		22		45		1
47		2		1		ar
48		2		37		1
49		1		36		1
50		8		7		ar
51		8		34		1
52		7		40		1
53		34		35		1
54		51		35		1
55		35		52		1
56		35		50		1

