@<TRIPOS>MOLECULE
SYL-2019-BC-102974-3-16
 51 55 0 0 0
SMALL
MULLIKEN_CHARGES
****
Gaussian 16 #p B3LYP/6-31G* opt
@<TRIPOS>ATOM
1		C		-4.1760		1.3381		-2.3192		C.3		1		UNL1		-0.5370
2		C		-3.3122		1.2254		-1.0813		C.ar		1		UNL1		0.1383
3		C		-2.1036		1.9323		-1.0444		C.ar		1		UNL1		-0.2256
4		C		-1.2577		1.8491		0.0538		C.ar		1		UNL1		0.3693
5		O		-0.1263		2.6703		0.0559		O.3		1		UNL1		-0.5635
6		C		1.1175		2.1369		0.0806		C.ar		1		UNL1		0.5694
7		N		1.3048		0.8370		0.0071		N.ar		1		UNL1		-0.5688
8		C		2.5929		0.3917		0.0232		C.ar		1		UNL1		0.6965
9		N		2.6665		-0.9850		-0.0619		N.pl3		1		UNL1		-0.7762
10		C		3.7477		-1.8649		-0.0845		C.ar		1		UNL1		0.3830
11		C		5.0959		-1.4686		-0.0066		C.ar		1		UNL1		-0.1590
12		C		6.1001		-2.4282		-0.0360		C.ar		1		UNL1		-0.1536
13		C		5.7984		-3.7959		-0.1425		C.ar		1		UNL1		0.1310
14		C		6.8431		-4.7731		-0.1714		C.1		1		UNL1		0.2268
15		N		7.6922		-5.5693		-0.1949		N.1		1		UNL1		-0.4851
16		C		4.4505		-4.1896		-0.2204		C.ar		1		UNL1		-0.1406
17		C		3.4450		-3.2382		-0.1917		C.ar		1		UNL1		-0.2059
18		N		3.6948		1.1276		0.1069		N.ar		1		UNL1		-0.5777
19		C		3.4856		2.4621		0.1811		C.ar		1		UNL1		0.3288
20		C		4.5050		3.4703		0.2785		C.ar		1		UNL1		-0.0984
21		C		3.9800		4.7249		0.3373		C.ar		1		UNL1		-0.3443
22		S		2.2333		4.7689		0.2795		S.2		1		UNL1		0.2810
23		C		2.1972		3.0291		0.1716		C.ar		1		UNL1		-0.2333
24		C		-1.5782		1.0551		1.1502		C.ar		1		UNL1		-0.1438
25		C		-2.7713		0.3416		1.1176		C.ar		1		UNL1		-0.1854
26		C		-3.6548		0.4158		0.0261		C.ar		1		UNL1		0.0271
27		C		-4.9140		-0.3780		0.0874		C.ar		1		UNL1		0.0740
28		C		-6.1726		0.2159		-0.1091		C.ar		1		UNL1		-0.1684
29		C		-7.3429		-0.5284		-0.0133		C.ar		1		UNL1		-0.1409
30		C		-7.2804		-1.8997		0.2848		C.ar		1		UNL1		0.1324
31		C		-8.4836		-2.6728		0.3823		C.1		1		UNL1		0.2377
32		N		-9.4602		-3.3003		0.4610		N.1		1		UNL1		-0.4756
33		C		-6.0305		-2.5070		0.4881		C.ar		1		UNL1		-0.1405
34		C		-4.8683		-1.7502		0.3908		C.ar		1		UNL1		-0.1722
35		H		-3.5659		1.6038		-3.1880		H		1		UNL1		0.1646
36		H		-4.9412		2.1177		-2.2139		H		1		UNL1		0.1686
37		H		-4.6968		0.4027		-2.5418		H		1		UNL1		0.1736
38		H		-1.8090		2.5554		-1.8836		H		1		UNL1		0.1437
39		H		1.7491		-1.4061		-0.1273		H		1		UNL1		0.3472
40		H		5.3352		-0.4184		0.0751		H		1		UNL1		0.1875
41		H		7.1379		-2.1157		0.0244		H		1		UNL1		0.1573
42		H		4.2008		-5.2424		-0.3034		H		1		UNL1		0.1575
43		H		2.4063		-3.5548		-0.2531		H		1		UNL1		0.1348
44		H		5.5642		3.2445		0.3013		H		1		UNL1		0.1616
45		H		4.5218		5.6589		0.4134		H		1		UNL1		0.1881
46		H		-0.9141		1.0012		2.0055		H		1		UNL1		0.1500
47		H		-3.0440		-0.2719		1.9717		H		1		UNL1		0.1457
48		H		-6.2364		1.2793		-0.3165		H		1		UNL1		0.1486
49		H		-8.3084		-0.0547		-0.1593		H		1		UNL1		0.1621
50		H		-5.9793		-3.5670		0.7153		H		1		UNL1		0.1620
51		H		-3.9047		-2.2297		0.5360		H		1		UNL1		0.1475
@<TRIPOS>BOND
1		35		1		1
2		37		1		1
3		1		36		1
4		1		2		1
5		38		3		1
6		2		3		ar
7		2		26		ar
8		3		4		ar
9		48		28		1
10		42		16		1
11		43		17		1
12		16		17		ar
13		16		13		ar
14		15		14		3
15		17		10		ar
16		14		13		1
17		49		29		1
18		13		12		ar
19		39		9		1
20		28		29		ar
21		28		27		ar
22		10		9		1
23		10		11		ar
24		9		8		1
25		12		11		ar
26		12		41		1
27		29		30		ar
28		11		40		1
29		7		8		ar
30		7		6		ar
31		8		18		ar
32		26		27		1
33		26		25		ar
34		4		5		1
35		4		24		ar
36		5		6		1
37		6		23		ar
38		27		34		ar
39		18		19		ar
40		23		19		ar
41		23		22		ar
42		19		20		ar
43		20		44		1
44		20		21		ar
45		22		21		ar
46		30		31		1
47		30		33		ar
48		21		45		1
49		31		32		3
50		34		33		ar
51		34		51		1
52		33		50		1
53		25		24		ar
54		25		47		1
55		24		46		1

