@<TRIPOS>MOLECULE
SYL-2019-jmc-11603-3-11
 51 55 0 0 0
SMALL
MULLIKEN_CHARGES

@<TRIPOS>ATOM
1		C		5.4247		-0.4963		0.6072		C.ar		1		UNL1		0.1797
2		C		4.0363		-0.6332		0.5967		C.ar		1		UNL1		-0.2569
3		C		3.3864		-1.6947		-0.0557		C.ar		1		UNL1		0.1172
4		C		4.1728		-2.6503		-0.7201		C.ar		1		UNL1		-0.1871
5		C		5.5572		-2.5427		-0.7268		C.ar		1		UNL1		-0.1396
6		C		6.1884		-1.4753		-0.0687		C.ar		1		UNL1		0.0866
7		C		1.1630		-1.4629		1.0996		C.ar		1		UNL1		-0.1876
8		C		-0.2257		-1.5613		1.1149		C.ar		1		UNL1		-0.1464
9		C		-0.8873		-1.9941		-0.0321		C.ar		1		UNL1		0.3573
10		C		-0.1824		-2.3421		-1.1796		C.ar		1		UNL1		-0.1594
11		C		1.2076		-2.2454		-1.1806		C.ar		1		UNL1		-0.1866
12		C		1.9062		-1.8008		-0.0456		C.ar		1		UNL1		0.0908
13		C		-3.1101		-1.1252		0.0035		C.ar		1		UNL1		0.5659
14		C		-4.4822		-1.3832		0.0754		C.ar		1		UNL1		-0.2335
15		C		-5.3356		-0.2580		0.0941		C.ar		1		UNL1		0.3259
16		N		-4.8696		1.0040		0.0484		N.ar		1		UNL1		-0.5836
17		C		-3.5391		1.1141		-0.0187		C.ar		1		UNL1		0.6892
18		N		-2.6376		0.1076		-0.0448		N.ar		1		UNL1		-0.5530
19		C		0.5991		2.9122		-0.2804		C.ar		1		UNL1		-0.1609
20		C		-0.6190		2.2473		-0.2247		C.ar		1		UNL1		-0.1651
21		C		-1.8151		2.9833		-0.1243		C.ar		1		UNL1		0.3822
22		C		-1.7452		4.3921		-0.0874		C.ar		1		UNL1		-0.2048
23		C		-0.5275		5.0487		-0.1425		C.ar		1		UNL1		-0.1410
24		C		0.6682		4.3144		-0.2382		C.ar		1		UNL1		0.1317
25		C		7.6188		-1.3863		-0.0862		C.1		1		UNL1		0.2282
26		N		8.7804		-1.3127		-0.0966		N.1		1		UNL1		-0.4831
27		O		-2.2720		-2.1884		-0.0283		O.3		1		UNL1		-0.5625
28		N		-3.0883		2.4197		-0.0618		N.pl3		1		UNL1		-0.7746
29		C		1.9326		4.9817		-0.2878		C.1		1		UNL1		0.2249
30		N		2.9641		5.5204		-0.3240		N.1		1		UNL1		-0.4857
31		S		-5.3615		-2.8890		0.1465		S.2		1		UNL1		0.2793
32		C		-6.8675		-1.9999		0.2010		C.ar		1		UNL1		-0.3430
33		C		-6.7183		-0.6482		0.1679		C.ar		1		UNL1		-0.0969
34		C		6.0896		0.6647		1.3031		C.3		1		UNL1		-0.5359
35		H		3.4394		0.1277		1.0924		H		1		UNL1		0.1408
36		H		3.6992		-3.4959		-1.2090		H		1		UNL1		0.1445
37		H		6.1630		-3.2879		-1.2324		H		1		UNL1		0.1605
38		H		1.6799		-1.1488		2.0014		H		1		UNL1		0.1483
39		H		-0.7920		-1.3131		2.0063		H		1		UNL1		0.1529
40		H		-0.7231		-2.6775		-2.0586		H		1		UNL1		0.1527
41		H		1.7545		-2.4920		-2.0856		H		1		UNL1		0.1477
42		H		1.5154		2.3356		-0.3605		H		1		UNL1		0.1552
43		H		-0.6549		1.1688		-0.2574		H		1		UNL1		0.1969
44		H		-2.6624		4.9715		-0.0116		H		1		UNL1		0.1376
45		H		-0.4930		6.1329		-0.1104		H		1		UNL1		0.1581
46		H		-3.8610		3.0723		-0.0230		H		1		UNL1		0.3482
47		H		-7.7956		-2.5545		0.2560		H		1		UNL1		0.1879
48		H		-7.5347		0.0632		0.1929		H		1		UNL1		0.1615
49		H		6.8019		0.3193		2.0614		H		1		UNL1		0.1821
50		H		5.3507		1.3048		1.7928		H		1		UNL1		0.1648
51		H		6.6562		1.2808		0.5950		H		1		UNL1		0.1883
@<TRIPOS>BOND
1		41		11		1
2		40		10		1
3		37		5		1
4		36		4		1
5		11		10		ar
6		11		12		ar
7		10		9		ar
8		5		4		ar
9		5		6		ar
10		4		3		ar
11		42		19		1
12		30		29		3
13		29		24		1
14		19		24		ar
15		19		20		ar
16		43		20		1
17		24		23		ar
18		20		21		ar
19		23		45		1
20		23		22		ar
21		21		22		ar
22		21		28		1
23		26		25		3
24		22		44		1
25		25		6		1
26		6		1		ar
27		28		46		1
28		28		17		1
29		3		12		1
30		3		2		ar
31		12		7		ar
32		18		17		ar
33		18		13		ar
34		9		27		1
35		9		8		ar
36		27		13		1
37		17		16		ar
38		13		14		ar
39		16		15		ar
40		14		15		ar
41		14		31		ar
42		15		33		ar
43		31		32		ar
44		33		48		1
45		33		32		ar
46		32		47		1
47		51		34		1
48		2		1		ar
49		2		35		1
50		1		34		1
51		7		8		ar
52		7		38		1
53		8		39		1
54		34		50		1
55		34		49		1

