@<TRIPOS>MOLECULE
SYL-2019-jmc-11603-3-17
 48 52 0 0 0
SMALL
MULLIKEN_CHARGES

@<TRIPOS>ATOM
1		C		5.6142		-1.2247		-0.2598		C.ar		1		UNL1		-0.0994
2		C		4.2824		-1.5895		-0.0966		C.ar		1		UNL1		-0.1617
3		C		3.2579		-0.6550		-0.3059		C.ar		1		UNL1		0.0863
4		C		3.6011		0.6519		-0.6877		C.ar		1		UNL1		-0.1751
5		C		4.9314		1.0185		-0.8470		C.ar		1		UNL1		-0.1337
6		C		5.9618		0.0866		-0.6362		C.ar		1		UNL1		0.1493
7		C		1.2589		-1.6575		0.9410		C.ar		1		UNL1		-0.1295
8		C		-0.0921		-2.0021		0.9875		C.ar		1		UNL1		-0.1648
9		C		-0.8996		-1.7336		-0.1111		C.ar		1		UNL1		0.3671
10		C		-0.3830		-1.1237		-1.2521		C.ar		1		UNL1		-0.1378
11		C		0.9646		-0.7831		-1.2729		C.ar		1		UNL1		-0.1778
12		C		1.8256		-1.0429		-0.1901		C.ar		1		UNL1		0.0766
13		C		-3.2519		-1.3172		-0.1154		C.ar		1		UNL1		0.5634
14		C		-4.5393		-1.8495		-0.2141		C.ar		1		UNL1		-0.2324
15		C		-5.6026		-0.9193		-0.2524		C.ar		1		UNL1		0.3260
16		N		-5.4021		0.4099		-0.1964		N.ar		1		UNL1		-0.5812
17		C		-4.1237		0.7885		-0.0987		C.ar		1		UNL1		0.6898
18		N		-3.0374		-0.0157		-0.0555		N.ar		1		UNL1		-0.5533
19		C		-0.4609		3.3850		0.4191		C.ar		1		UNL1		-0.1602
20		C		-1.5142		2.4879		0.2962		C.ar		1		UNL1		-0.1631
21		C		-2.8203		2.9666		0.0810		C.ar		1		UNL1		0.3826
22		C		-3.0291		4.3593		-0.0016		C.ar		1		UNL1		-0.2043
23		C		-1.9744		5.2482		0.1200		C.ar		1		UNL1		-0.1405
24		C		-0.6684		4.7712		0.3308		C.ar		1		UNL1		0.1330
25		C		7.3246		0.4880		-0.8108		C.1		1		UNL1		0.2435
26		N		8.4190		0.8499		-0.9652		N.1		1		UNL1		-0.4673
27		O		-2.2142		-2.1913		-0.0642		O.3		1		UNL1		-0.5608
28		N		-3.9484		2.1574		-0.0465		N.pl3		1		UNL1		-0.7741
29		C		0.4304		5.6794		0.4501		C.1		1		UNL1		0.2250
30		N		1.3283		6.4146		0.5428		N.1		1		UNL1		-0.4830
31		S		-5.0939		-3.5016		-0.3068		S.2		1		UNL1		0.2834
32		C		-6.7468		-2.9344		-0.3954		C.ar		1		UNL1		-0.3423
33		C		-6.8755		-1.5808		-0.3585		C.ar		1		UNL1		-0.0962
34		CL		6.8572		-2.4240		-0.0019		Cl		1		UNL1		0.0425
35		CL		2.2104		-1.9743		2.3842		Cl		1		UNL1		0.0136
36		H		4.0462		-2.6095		0.1812		H		1		UNL1		0.1783
37		H		2.8198		1.3890		-0.8449		H		1		UNL1		0.1577
38		H		5.1920		2.0325		-1.1315		H		1		UNL1		0.1765
39		H		-0.5141		-2.4705		1.8687		H		1		UNL1		0.1765
40		H		-1.0215		-0.9263		-2.1055		H		1		UNL1		0.1605
41		H		1.3814		-0.3229		-2.1636		H		1		UNL1		0.1596
42		H		0.5421		3.0072		0.5923		H		1		UNL1		0.1549
43		H		-1.3379		1.4251		0.3653		H		1		UNL1		0.1898
44		H		-4.0340		4.7410		-0.1662		H		1		UNL1		0.1392
45		H		-2.1535		6.3163		0.0512		H		1		UNL1		0.1600
46		H		-4.8349		2.6405		-0.1199		H		1		UNL1		0.3495
47		H		-7.5419		-3.6652		-0.4712		H		1		UNL1		0.1902
48		H		-7.8183		-1.0495		-0.4019		H		1		UNL1		0.1635
@<TRIPOS>BOND
1		41		11		1
2		40		10		1
3		11		10		ar
4		11		12		ar
5		10		9		ar
6		38		5		1
7		26		25		3
8		5		4		ar
9		5		6		ar
10		37		4		1
11		25		6		1
12		4		3		ar
13		6		1		ar
14		47		32		1
15		48		33		1
16		32		33		ar
17		32		31		ar
18		33		15		ar
19		31		14		ar
20		3		12		1
21		3		2		ar
22		1		2		ar
23		1		34		1
24		15		14		ar
25		15		16		ar
26		14		13		ar
27		16		17		ar
28		12		7		ar
29		44		22		1
30		46		28		1
31		13		27		1
32		13		18		ar
33		9		27		1
34		9		8		ar
35		17		18		ar
36		17		28		1
37		2		36		1
38		28		21		1
39		22		21		ar
40		22		23		ar
41		45		23		1
42		21		20		ar
43		23		24		ar
44		20		43		1
45		20		19		ar
46		24		19		ar
47		24		29		1
48		19		42		1
49		29		30		3
50		7		8		ar
51		7		35		1
52		8		39		1

