@<TRIPOS>MOLECULE
SYL-2019-BC-102974-3-31
 48 52 0 0 0
SMALL
MULLIKEN_CHARGES

@<TRIPOS>ATOM
1		C		5.7955		-2.3000		0.6289		C.ar		1		UNL1		-0.1403
2		C		4.4100		-2.4015		0.6594		C.ar		1		UNL1		-0.1762
3		C		3.6017		-1.5196		-0.0786		C.ar		1		UNL1		0.0970
4		C		4.2287		-0.5264		-0.8509		C.ar		1		UNL1		-0.1803
5		C		5.6136		-0.4141		-0.8883		C.ar		1		UNL1		-0.1393
6		C		6.4094		-1.3033		-0.1475		C.ar		1		UNL1		0.1358
7		C		1.4628		-1.9718		1.1509		C.ar		1		UNL1		-0.2680
8		C		0.0783		-2.0698		1.1711		C.ar		1		UNL1		0.3690
9		C		-0.6887		-1.8508		0.0284		C.ar		1		UNL1		0.2109
10		C		-0.0200		-1.5201		-1.1502		C.ar		1		UNL1		0.3898
11		C		1.3607		-1.4052		-1.2008		C.ar		1		UNL1		-0.2680
12		C		2.1223		-1.6340		-0.0420		C.ar		1		UNL1		0.1008
13		C		-2.8774		-0.9658		0.0186		C.ar		1		UNL1		0.5761
14		C		-4.2515		-1.1960		-0.0468		C.ar		1		UNL1		-0.2297
15		C		-5.0762		-0.0482		-0.0777		C.ar		1		UNL1		0.3266
16		N		-4.5775		1.2009		-0.0463		N.ar		1		UNL1		-0.5819
17		C		-3.2449		1.2809		0.0183		C.ar		1		UNL1		0.6931
18		N		-2.3700		0.2507		0.0544		N.ar		1		UNL1		-0.5547
19		C		0.9309		2.9889		0.3124		C.ar		1		UNL1		-0.1594
20		C		-0.3019		2.3515		0.2564		C.ar		1		UNL1		-0.1597
21		C		-1.4780		3.1106		0.1078		C.ar		1		UNL1		0.3846
22		C		-1.3738		4.5150		0.0241		C.ar		1		UNL1		-0.2044
23		C		-0.1419		5.1447		0.0803		C.ar		1		UNL1		-0.1404
24		C		1.0340		4.3867		0.2237		C.ar		1		UNL1		0.1319
25		C		7.8386		-1.1980		-0.1845		C.1		1		UNL1		0.2402
26		N		8.9987		-1.1173		-0.2147		N.1		1		UNL1		-0.4716
27		O		-2.0554		-2.0503		0.0564		O.3		1		UNL1		-0.5521
28		N		-2.7632		2.5752		0.0448		N.pl3		1		UNL1		-0.7753
29		C		2.3125		5.0262		0.2755		C.1		1		UNL1		0.2254
30		N		3.3551		5.5431		0.3141		N.1		1		UNL1		-0.4842
31		S		-5.1686		-2.6790		-0.1028		S.2		1		UNL1		0.2872
32		C		-6.6508		-1.7516		-0.1662		C.ar		1		UNL1		-0.3422
33		C		-6.4680		-0.4038		-0.1471		C.ar		1		UNL1		-0.0965
34		F		-0.5534		-2.3710		2.3145		F		1		UNL1		-0.2749
35		F		-0.7520		-1.3193		-2.2557		F		1		UNL1		-0.2765
36		H		6.4090		-2.9932		1.1951		H		1		UNL1		0.1656
37		H		3.9485		-3.1928		1.2421		H		1		UNL1		0.1514
38		H		3.6247		0.1828		-1.4089		H		1		UNL1		0.1544
39		H		6.0848		0.3640		-1.4799		H		1		UNL1		0.1702
40		H		2.0067		-2.1239		2.0762		H		1		UNL1		0.1635
41		H		1.8288		-1.1721		-2.1504		H		1		UNL1		0.1641
42		H		1.8320		2.3949		0.4297		H		1		UNL1		0.1538
43		H		-0.3650		1.2762		0.3261		H		1		UNL1		0.1846
44		H		-2.2753		5.1126		-0.0896		H		1		UNL1		0.1388
45		H		-0.0810		6.2260		0.0118		H		1		UNL1		0.1592
46		H		-3.5201		3.2450		-0.0113		H		1		UNL1		0.3494
47		H		-7.5926		-2.2832		-0.2149		H		1		UNL1		0.1892
48		H		-7.2662		0.3275		-0.1796		H		1		UNL1		0.1627
@<TRIPOS>BOND
1		35		10		1
2		41		11		1
3		39		5		1
4		38		4		1
5		11		10		ar
6		11		12		ar
7		10		9		ar
8		5		4		ar
9		5		6		ar
10		4		3		ar
11		47		32		1
12		26		25		3
13		25		6		1
14		48		33		1
15		32		33		ar
16		32		31		ar
17		6		1		ar
18		33		15		ar
19		31		14		ar
20		44		22		1
21		3		12		1
22		3		2		ar
23		15		14		ar
24		15		16		ar
25		14		13		ar
26		16		17		ar
27		12		7		ar
28		46		28		1
29		45		23		1
30		17		28		1
31		17		18		ar
32		13		18		ar
33		13		27		1
34		22		23		ar
35		22		21		ar
36		9		27		1
37		9		8		ar
38		28		21		1
39		23		24		ar
40		21		20		ar
41		24		29		1
42		24		19		ar
43		20		19		ar
44		20		43		1
45		29		30		3
46		19		42		1
47		1		2		ar
48		1		36		1
49		2		37		1
50		7		8		ar
51		7		40		1
52		8		34		1

