@<TRIPOS>MOLECULE
SYL-2019-BC-102974-3-32
 51 55 0 0 0
SMALL
MULLIKEN_CHARGES

@<TRIPOS>ATOM
1		C		-5.8321		-2.0089		-1.0383		C.ar		1		UNL1		-0.1404
2		C		-4.4458		-2.0996		-1.0682		C.ar		1		UNL1		-0.1768
3		C		-3.6556		-1.4766		-0.0865		C.ar		1		UNL1		0.0963
4		C		-4.3039		-0.7552		0.9315		C.ar		1		UNL1		-0.1811
5		C		-5.6897		-0.6574		0.9723		C.ar		1		UNL1		-0.1391
6		C		-6.4666		-1.2859		-0.0147		C.ar		1		UNL1		0.1352
7		C		-1.4799		-1.5409		-1.3439		C.ar		1		UNL1		-0.2596
8		C		-0.0880		-1.6328		-1.4092		C.ar		1		UNL1		0.1767
9		C		0.6192		-1.7663		-0.2073		C.ar		1		UNL1		0.2946
10		C		-0.0531		-1.8132		1.0162		C.ar		1		UNL1		-0.0925
11		C		-1.4410		-1.7167		1.0618		C.ar		1		UNL1		-0.2061
12		C		-2.1750		-1.5777		-0.1245		C.ar		1		UNL1		0.1142
13		C		2.8261		-0.8888		-0.1615		C.ar		1		UNL1		0.5798
14		C		4.2008		-1.1300		-0.1273		C.ar		1		UNL1		-0.2321
15		C		5.0355		0.0077		-0.0511		C.ar		1		UNL1		0.3253
16		N		4.5475		1.2610		-0.0108		N.ar		1		UNL1		-0.5829
17		C		3.2146		1.3538		-0.0502		C.ar		1		UNL1		0.6913
18		N		2.3297		0.3344		-0.1289		N.ar		1		UNL1		-0.5545
19		C		-0.9560		3.1026		-0.0597		C.ar		1		UNL1		-0.1585
20		C		0.2709		2.4511		-0.0588		C.ar		1		UNL1		-0.1637
21		C		1.4621		3.2000		-0.0136		C.ar		1		UNL1		0.3833
22		C		1.3786		4.6076		0.0315		C.ar		1		UNL1		-0.2049
23		C		0.1526		5.2509		0.0316		C.ar		1		UNL1		-0.1406
24		C		-1.0380		4.5039		-0.0146		C.ar		1		UNL1		0.1316
25		C		-7.8966		-1.1943		0.0226		C.1		1		UNL1		0.2391
26		N		-9.0575		-1.1245		0.0521		N.1		1		UNL1		-0.4735
27		O		1.9968		-1.9605		-0.2464		O.3		1		UNL1		-0.5591
28		N		2.7436		2.6515		-0.0082		N.pl3		1		UNL1		-0.7760
29		C		-2.3096		5.1594		-0.0142		C.1		1		UNL1		0.2260
30		N		-3.3451		5.6915		-0.0130		N.1		1		UNL1		-0.4844
31		S		5.1059		-2.6214		-0.1589		S.2		1		UNL1		0.2840
32		C		6.5972		-1.7102		-0.0740		C.ar		1		UNL1		-0.3426
33		C		6.4253		-0.3618		-0.0220		C.ar		1		UNL1		-0.0966
34		C		0.6491		-1.5761		-2.7235		C.3		1		UNL1		-0.5359
35		CL		0.8478		-2.0116		2.5017		Cl		1		UNL1		0.0147
36		H		-6.4308		-2.5026		-1.7970		H		1		UNL1		0.1636
37		H		-3.9691		-2.6846		-1.8488		H		1		UNL1		0.1486
38		H		-3.7143		-0.2439		1.6865		H		1		UNL1		0.1527
39		H		-6.1766		-0.0893		1.7583		H		1		UNL1		0.1673
40		H		-2.0342		-1.4104		-2.2688		H		1		UNL1		0.1435
41		H		-1.9432		-1.7823		2.0204		H		1		UNL1		0.1657
42		H		-1.8690		2.5163		-0.0957		H		1		UNL1		0.1551
43		H		0.3174		1.3730		-0.0905		H		1		UNL1		0.1915
44		H		2.2920		5.1970		0.0671		H		1		UNL1		0.1380
45		H		0.1078		6.3346		0.0672		H		1		UNL1		0.1586
46		H		3.5082		3.3130		0.0433		H		1		UNL1		0.3488
47		H		7.5351		-2.2507		-0.0660		H		1		UNL1		0.1886
48		H		7.2300		0.3609		0.0358		H		1		UNL1		0.1621
49		H		1.2665		-0.6724		-2.7881		H		1		UNL1		0.1820
50		H		-0.0530		-1.5667		-3.5616		H		1		UNL1		0.1632
51		H		1.3178		-2.4354		-2.8423		H		1		UNL1		0.1794
@<TRIPOS>BOND
1		50		34		1
2		51		34		1
3		49		34		1
4		34		8		1
5		40		7		1
6		37		2		1
7		36		1		1
8		8		7		ar
9		8		9		ar
10		7		12		ar
11		2		1		ar
12		2		3		ar
13		1		6		ar
14		27		9		1
15		27		13		1
16		9		10		ar
17		13		18		ar
18		13		14		ar
19		31		14		ar
20		31		32		ar
21		18		17		ar
22		14		15		ar
23		12		3		1
24		12		11		ar
25		42		19		1
26		43		20		1
27		3		4		ar
28		32		47		1
29		32		33		ar
30		19		20		ar
31		19		24		ar
32		20		21		ar
33		15		33		ar
34		15		16		ar
35		17		16		ar
36		17		28		1
37		33		48		1
38		6		25		1
39		6		5		ar
40		24		29		1
41		24		23		ar
42		29		30		3
43		21		28		1
44		21		22		ar
45		28		46		1
46		25		26		3
47		22		23		ar
48		22		44		1
49		23		45		1
50		4		5		ar
51		4		38		1
52		5		39		1
53		10		11		ar
54		10		35		1
55		11		41		1

