@<TRIPOS>MOLECULE
SYL-2019-jmc-11603-3-18
 51 55 0 0 0
SMALL
MULLIKEN_CHARGES

@<TRIPOS>ATOM
1		C		5.7701		-1.9649		0.0500		C.ar		1		UNL1		-0.2089
2		C		4.4089		-2.2614		0.1491		C.ar		1		UNL1		0.1618
3		C		3.4743		-1.2602		-0.2046		C.ar		1		UNL1		0.0472
4		C		3.9344		-0.0125		-0.6560		C.ar		1		UNL1		-0.1731
5		C		5.2907		0.2748		-0.7489		C.ar		1		UNL1		-0.1464
6		C		6.2206		-0.7107		-0.3889		C.ar		1		UNL1		0.1494
7		C		1.3236		-1.8063		1.0208		C.ar		1		UNL1		0.3451
8		C		-0.0521		-1.9915		1.0820		C.ar		1		UNL1		-0.2320
9		C		-0.7852		-1.8449		-0.0902		C.ar		1		UNL1		0.3651
10		C		-0.1661		-1.5261		-1.2964		C.ar		1		UNL1		-0.1424
11		C		1.2151		-1.3464		-1.3167		C.ar		1		UNL1		-0.1821
12		C		2.0024		-1.4898		-0.1612		C.ar		1		UNL1		-0.0284
13		C		-3.0434		-1.0943		-0.0669		C.ar		1		UNL1		0.5628
14		C		-4.4024		-1.4145		-0.1195		C.ar		1		UNL1		-0.2311
15		C		-5.3045		-0.3273		-0.1297		C.ar		1		UNL1		0.3257
16		N		-4.8939		0.9537		-0.0897		N.ar		1		UNL1		-0.5822
17		C		-3.5689		1.1235		-0.0378		C.ar		1		UNL1		0.6895
18		N		-2.6237		0.1571		-0.0247		N.ar		1		UNL1		-0.5522
19		C		0.4832		3.1020		0.2722		C.ar		1		UNL1		-0.1619
20		C		-0.7033		2.3836		0.1988		C.ar		1		UNL1		-0.1636
21		C		-1.9284		3.0658		0.0748		C.ar		1		UNL1		0.3825
22		C		-1.9198		4.4758		0.0290		C.ar		1		UNL1		-0.2046
23		C		-0.7332		5.1858		0.1002		C.ar		1		UNL1		-0.1407
24		C		0.4915		4.5055		0.2220		C.ar		1		UNL1		0.1332
25		C		7.6278		-0.4486		-0.4783		C.1		1		UNL1		0.2372
26		N		8.7700		-0.2406		-0.5521		N.1		1		UNL1		-0.4766
27		O		-2.1540		-2.1181		-0.0510		O.3		1		UNL1		-0.5654
28		N		-3.1755		2.4470		0.0005		N.pl3		1		UNL1		-0.7743
29		C		1.7240		5.2284		0.2905		C.1		1		UNL1		0.2244
30		N		2.7293		5.8134		0.3424		N.1		1		UNL1		-0.4836
31		S		-5.2156		-2.9574		-0.1818		S.2		1		UNL1		0.2805
32		C		-6.7595		-2.1346		-0.2205		C.ar		1		UNL1		-0.3426
33		C		-6.6694		-0.7778		-0.1890		C.ar		1		UNL1		-0.0964
34		C		3.9840		-3.6383		0.6029		C.3		1		UNL1		-0.5440
35		F		2.0230		-1.9251		2.1693		F		1		UNL1		-0.2849
36		H		6.5013		-2.7248		0.3088		H		1		UNL1		0.1549
37		H		3.2088		0.7492		-0.9271		H		1		UNL1		0.1523
38		H		5.6301		1.2470		-1.0902		H		1		UNL1		0.1671
39		H		-0.5329		-2.2331		2.0227		H		1		UNL1		0.1675
40		H		-0.7576		-1.4254		-2.1996		H		1		UNL1		0.1547
41		H		1.7090		-1.1050		-2.2531		H		1		UNL1		0.1573
42		H		1.4227		2.5677		0.3760		H		1		UNL1		0.1569
43		H		-0.6929		1.3046		0.2357		H		1		UNL1		0.1916
44		H		-2.8601		5.0138		-0.0662		H		1		UNL1		0.1383
45		H		-0.7457		6.2702		0.0610		H		1		UNL1		0.1590
46		H		-3.9760		3.0656		-0.0357		H		1		UNL1		0.3488
47		H		-7.6629		-2.7295		-0.2653		H		1		UNL1		0.1889
48		H		-7.5164		-0.1029		-0.2056		H		1		UNL1		0.1625
49		H		3.1692		-4.0307		-0.0150		H		1		UNL1		0.1665
50		H		3.6266		-3.6222		1.6379		H		1		UNL1		0.1846
51		H		4.8206		-4.3406		0.5468		H		1		UNL1		0.1622
@<TRIPOS>BOND
1		41		11		1
2		40		10		1
3		11		10		ar
4		11		12		ar
5		10		9		ar
6		38		5		1
7		37		4		1
8		5		4		ar
9		5		6		ar
10		4		3		ar
11		26		25		3
12		25		6		1
13		6		1		ar
14		47		32		1
15		32		33		ar
16		32		31		ar
17		48		33		1
18		3		12		1
19		3		2		ar
20		33		15		ar
21		31		14		ar
22		12		7		ar
23		15		14		ar
24		15		16		ar
25		14		13		ar
26		9		27		1
27		9		8		ar
28		16		17		ar
29		13		27		1
30		13		18		ar
31		44		22		1
32		17		18		ar
33		17		28		1
34		46		28		1
35		49		34		1
36		28		21		1
37		22		21		ar
38		22		23		ar
39		1		2		ar
40		1		36		1
41		45		23		1
42		21		20		ar
43		23		24		ar
44		2		34		1
45		20		43		1
46		20		19		ar
47		24		19		ar
48		24		29		1
49		19		42		1
50		29		30		3
51		51		34		1
52		34		50		1
53		7		8		ar
54		7		35		1
55		8		39		1

