@<TRIPOS>MOLECULE
SYL-2019-BC-102974-3-22
 51 55 0 0 0
SMALL
MULLIKEN_CHARGES

@<TRIPOS>ATOM
1		C		5.6750		-1.9695		0.3227		C.ar		1		UNL1		-0.1397
2		C		4.3004		-2.0618		0.5113		C.ar		1		UNL1		-0.1594
3		C		3.4097		-1.4707		-0.3986		C.ar		1		UNL1		0.0630
4		C		3.9331		-0.7888		-1.5092		C.ar		1		UNL1		-0.1657
5		C		5.3059		-0.6853		-1.7041		C.ar		1		UNL1		-0.1389
6		C		6.1881		-1.2789		-0.7870		C.ar		1		UNL1		0.1367
7		C		1.1796		-1.1361		0.8380		C.ar		1		UNL1		-0.0659
8		C		-0.2035		-1.3216		0.8909		C.ar		1		UNL1		-0.2079
9		C		-0.8563		-1.9576		-0.1598		C.ar		1		UNL1		0.3744
10		C		-0.1471		-2.4356		-1.2541		C.ar		1		UNL1		-0.1456
11		C		1.2348		-2.2637		-1.2910		C.ar		1		UNL1		-0.1823
12		C		1.9299		-1.6173		-0.2582		C.ar		1		UNL1		0.0485
13		C		-3.1153		-1.1805		-0.1675		C.ar		1		UNL1		0.5643
14		C		-4.4734		-1.5065		-0.1636		C.ar		1		UNL1		-0.2315
15		C		-5.3788		-0.4257		-0.2556		C.ar		1		UNL1		0.3265
16		N		-4.9716		0.8543		-0.3308		N.ar		1		UNL1		-0.5814
17		C		-3.6464		1.0321		-0.3122		C.ar		1		UNL1		0.6890
18		N		-2.6978		0.0700		-0.2382		N.ar		1		UNL1		-0.5551
19		C		0.3736		3.0656		0.0613		C.ar		1		UNL1		-0.1640
20		C		-0.8061		2.3370		-0.0251		C.ar		1		UNL1		-0.1627
21		C		-2.0181		2.9892		-0.3155		C.ar		1		UNL1		0.3804
22		C		-2.0064		4.3841		-0.5216		C.ar		1		UNL1		-0.2038
23		C		-0.8273		5.1061		-0.4411		C.ar		1		UNL1		-0.1400
24		C		0.3839		4.4545		-0.1467		C.ar		1		UNL1		0.1296
25		C		7.6052		-1.1871		-0.9863		C.1		1		UNL1		0.2400
26		N		8.7548		-1.1176		-1.1501		N.1		1		UNL1		-0.4735
27		O		-2.2261		-2.2066		-0.1124		O.3		1		UNL1		-0.5652
28		N		-3.2584		2.3544		-0.3945		N.pl3		1		UNL1		-0.7765
29		C		1.6042		5.1968		-0.0627		C.1		1		UNL1		0.2279
30		N		2.5955		5.8038		0.0015		N.1		1		UNL1		-0.4837
31		S		-5.2828		-3.0507		-0.0824		S.2		1		UNL1		0.2800
32		C		-6.8295		-2.2367		-0.1690		C.ar		1		UNL1		-0.3423
33		C		-6.7431		-0.8822		-0.2563		C.ar		1		UNL1		-0.0963
34		C		1.8259		-0.3648		1.9679		C.3		1		UNL1		0.8244
35		F		2.6486		0.6032		1.5038		F		1		UNL1		-0.2602
36		F		2.5634		-1.1592		2.7797		F		1		UNL1		-0.2619
37		F		0.9068		0.2406		2.7490		F		1		UNL1		-0.2648
38		H		6.3564		-2.4347		1.0274		H		1		UNL1		0.1652
39		H		3.9150		-2.6030		1.3674		H		1		UNL1		0.1572
40		H		3.2550		-0.3219		-2.2175		H		1		UNL1		0.1530
41		H		5.7006		-0.1469		-2.5595		H		1		UNL1		0.1662
42		H		-0.7726		-0.9463		1.7313		H		1		UNL1		0.1775
43		H		-0.6742		-2.9362		-2.0596		H		1		UNL1		0.1611
44		H		1.7967		-2.6457		-2.1378		H		1		UNL1		0.1586
45		H		1.2976		2.5511		0.3056		H		1		UNL1		0.1576
46		H		-0.7984		1.2690		0.1276		H		1		UNL1		0.1902
47		H		-2.9363		4.9004		-0.7485		H		1		UNL1		0.1377
48		H		-0.8355		6.1789		-0.6047		H		1		UNL1		0.1583
49		H		-4.0611		2.9627		-0.4955		H		1		UNL1		0.3489
50		H		-7.7317		-2.8347		-0.1478		H		1		UNL1		0.1893
51		H		-7.5923		-0.2128		-0.3184		H		1		UNL1		0.1631
@<TRIPOS>BOND
1		41		5		1
2		40		4		1
3		44		11		1
4		43		10		1
5		5		4		ar
6		5		6		ar
7		4		3		ar
8		11		10		ar
9		11		12		ar
10		10		9		ar
11		26		25		3
12		25		6		1
13		6		1		ar
14		47		22		1
15		48		23		1
16		22		23		ar
17		22		21		ar
18		49		28		1
19		23		24		ar
20		3		12		1
21		3		2		ar
22		28		21		1
23		28		17		1
24		16		17		ar
25		16		15		ar
26		51		33		1
27		21		20		ar
28		17		18		ar
29		12		7		ar
30		33		15		ar
31		33		32		ar
32		15		14		ar
33		18		13		ar
34		32		50		1
35		32		31		ar
36		13		14		ar
37		13		27		1
38		14		31		ar
39		9		27		1
40		9		8		ar
41		24		29		1
42		24		19		ar
43		29		30		3
44		20		19		ar
45		20		46		1
46		19		45		1
47		1		2		ar
48		1		38		1
49		2		39		1
50		7		8		ar
51		7		34		1
52		8		42		1
53		35		34		1
54		34		37		1
55		34		36		1

