@<TRIPOS>MOLECULE
SYL-2019-jmc-11603-3-10
 51 55 0 0 0
SMALL
MULLIKEN_CHARGES

@<TRIPOS>ATOM
1		C		5.7572		-2.0144		0.4710		C.ar		1		UNL1		-0.2064
2		C		4.3876		-2.2779		0.5533		C.ar		1		UNL1		0.1455
3		C		3.4904		-1.4117		-0.1165		C.ar		1		UNL1		0.0296
4		C		4.0025		-0.3269		-0.8493		C.ar		1		UNL1		-0.1767
5		C		5.3655		-0.0689		-0.9210		C.ar		1		UNL1		-0.1441
6		C		6.2558		-0.9202		-0.2510		C.ar		1		UNL1		0.1476
7		C		1.2976		-1.6960		1.1111		C.ar		1		UNL1		-0.1774
8		C		-0.0880		-1.8452		1.1177		C.ar		1		UNL1		-0.1516
9		C		-0.7688		-1.9102		-0.0943		C.ar		1		UNL1		0.3580
10		C		-0.0908		-1.8341		-1.3065		C.ar		1		UNL1		-0.1505
11		C		1.2946		-1.6814		-1.3001		C.ar		1		UNL1		-0.1805
12		C		2.0132		-1.6124		-0.0948		C.ar		1		UNL1		0.0654
13		C		-3.0057		-1.1017		-0.0586		C.ar		1		UNL1		0.5641
14		C		-4.3758		-1.3797		-0.0729		C.ar		1		UNL1		-0.2316
15		C		-5.2449		-0.2673		-0.0358		C.ar		1		UNL1		0.3255
16		N		-4.7956		1.0007		0.0123		N.ar		1		UNL1		-0.5835
17		C		-3.4651		1.1300		0.0229		C.ar		1		UNL1		0.6888
18		N		-2.5488		0.1369		-0.0107		N.ar		1		UNL1		-0.5526
19		C		0.6539		2.9867		0.1701		C.ar		1		UNL1		-0.1613
20		C		-0.5550		2.3037		0.1343		C.ar		1		UNL1		-0.1648
21		C		-1.7652		3.0226		0.1039		C.ar		1		UNL1		0.3824
22		C		-1.7185		4.4327		0.1124		C.ar		1		UNL1		-0.2050
23		C		-0.5100		5.1075		0.1469		C.ar		1		UNL1		-0.1409
24		C		0.6996		4.3905		0.1754		C.ar		1		UNL1		0.1319
25		C		7.6694		-0.6869		-0.3107		C.1		1		UNL1		0.2365
26		N		8.8171		-0.5026		-0.3592		N.1		1		UNL1		-0.4770
27		O		-2.1483		-2.1491		-0.0971		O.3		1		UNL1		-0.5648
28		N		-3.0315		2.4410		0.0707		N.pl3		1		UNL1		-0.7745
29		C		1.9536		5.0781		0.2072		C.1		1		UNL1		0.2250
30		N		2.9755		5.6355		0.2303		N.1		1		UNL1		-0.4847
31		S		-5.2358		-2.8971		-0.1323		S.2		1		UNL1		0.2784
32		C		-6.7554		-2.0298		-0.1065		C.ar		1		UNL1		-0.3431
33		C		-6.6239		-0.6768		-0.0566		C.ar		1		UNL1		-0.0969
34		C		3.9271		-3.4954		1.3251		C.3		1		UNL1		-0.5359
35		H		6.4584		-2.6781		0.9684		H		1		UNL1		0.1538
36		H		3.3086		0.3351		-1.3596		H		1		UNL1		0.1508
37		H		5.7410		0.7801		-1.4825		H		1		UNL1		0.1654
38		H		1.8262		-1.6221		2.0563		H		1		UNL1		0.1482
39		H		-0.6404		-1.9060		2.0498		H		1		UNL1		0.1521
40		H		-0.6440		-1.9003		-2.2378		H		1		UNL1		0.1525
41		H		1.8304		-1.6312		-2.2437		H		1		UNL1		0.1500
42		H		1.5817		2.4235		0.1973		H		1		UNL1		0.1553
43		H		-0.5735		1.2242		0.1287		H		1		UNL1		0.1955
44		H		-2.6468		4.9989		0.0899		H		1		UNL1		0.1374
45		H		-0.4935		6.1925		0.1513		H		1		UNL1		0.1581
46		H		-3.8144		3.0825		0.0783		H		1		UNL1		0.3481
47		H		-7.6770		-2.5972		-0.1309		H		1		UNL1		0.1877
48		H		-7.4506		0.0226		-0.0343		H		1		UNL1		0.1614
49		H		3.0737		-3.9825		0.8446		H		1		UNL1		0.1742
50		H		3.6198		-3.2406		2.3471		H		1		UNL1		0.1692
51		H		4.7377		-4.2260		1.4057		H		1		UNL1		0.1652
@<TRIPOS>BOND
1		41		11		1
2		40		10		1
3		37		5		1
4		36		4		1
5		10		11		ar
6		10		9		ar
7		11		12		ar
8		5		4		ar
9		5		6		ar
10		4		3		ar
11		26		25		3
12		25		6		1
13		6		1		ar
14		31		32		ar
15		31		14		ar
16		47		32		1
17		3		12		1
18		3		2		ar
19		32		33		ar
20		27		9		1
21		27		13		1
22		12		7		ar
23		9		8		ar
24		14		13		ar
25		14		15		ar
26		13		18		ar
27		33		15		ar
28		33		48		1
29		15		16		ar
30		18		17		ar
31		16		17		ar
32		17		28		1
33		28		46		1
34		28		21		1
35		44		22		1
36		21		22		ar
37		21		20		ar
38		22		23		ar
39		43		20		1
40		20		19		ar
41		23		45		1
42		23		24		ar
43		19		24		ar
44		19		42		1
45		24		29		1
46		29		30		3
47		1		2		ar
48		1		35		1
49		2		34		1
50		49		34		1
51		7		8		ar
52		7		38		1
53		8		39		1
54		34		51		1
55		34		50		1

