@<TRIPOS>MOLECULE
SYL-2019-jmc-11603-3-13
 48 52 0 0 0
SMALL
MULLIKEN_CHARGES

@<TRIPOS>ATOM
1		C		5.8276		-1.7234		0.1190		C.ar		1		UNL1		0.3632
2		C		4.4758		-2.0037		0.2272		C.ar		1		UNL1		-0.2425
3		C		3.5316		-1.0611		-0.2119		C.ar		1		UNL1		0.1166
4		C		3.9944		0.1580		-0.7433		C.ar		1		UNL1		-0.1803
5		C		5.3529		0.4272		-0.8440		C.ar		1		UNL1		-0.1411
6		C		6.3012		-0.5167		-0.4139		C.ar		1		UNL1		0.0636
7		C		1.4762		-2.0171		0.9213		C.ar		1		UNL1		0.3347
8		C		0.1119		-2.2645		0.9953		C.ar		1		UNL1		-0.2401
9		C		-0.6989		-1.8261		-0.0460		C.ar		1		UNL1		0.3667
10		C		-0.1585		-1.1581		-1.1447		C.ar		1		UNL1		-0.1406
11		C		1.2117		-0.9193		-1.1779		C.ar		1		UNL1		-0.1956
12		C		2.0759		-1.3388		-0.1492		C.ar		1		UNL1		0.0157
13		C		-3.0265		-1.2562		-0.0374		C.ar		1		UNL1		0.5663
14		C		-4.3421		-1.7185		-0.1178		C.ar		1		UNL1		-0.2342
15		C		-5.3547		-0.7333		-0.1447		C.ar		1		UNL1		0.3266
16		N		-5.0824		0.5834		-0.0984		N.ar		1		UNL1		-0.5817
17		C		-3.7841		0.8933		-0.0212		C.ar		1		UNL1		0.6897
18		N		-2.7417		0.0324		0.0135		N.ar		1		UNL1		-0.5537
19		C		0.0223		3.3022		0.3637		C.ar		1		UNL1		-0.1594
20		C		-1.0790		2.4595		0.2837		C.ar		1		UNL1		-0.1643
21		C		-2.3654		3.0026		0.1064		C.ar		1		UNL1		0.3825
22		C		-2.5057		4.4036		0.0185		C.ar		1		UNL1		-0.2043
23		C		-1.4037		5.2382		0.0981		C.ar		1		UNL1		-0.1405
24		C		-0.1174		4.6965		0.2703		C.ar		1		UNL1		0.1323
25		C		7.7048		-0.2649		-0.5100		C.1		1		UNL1		0.2614
26		N		8.8436		-0.0459		-0.5977		N.1		1		UNL1		-0.4690
27		O		-2.0412		-2.1884		0.0090		O.3		1		UNL1		-0.5608
28		N		-3.5366		2.2514		0.0194		N.pl3		1		UNL1		-0.7744
29		C		1.0290		5.5489		0.3459		C.1		1		UNL1		0.2256
30		N		1.9646		6.2393		0.4034		N.1		1		UNL1		-0.4832
31		S		-4.9851		-3.3390		-0.1936		S.2		1		UNL1		0.2828
32		C		-6.6067		-2.6849		-0.2606		C.ar		1		UNL1		-0.3424
33		C		-6.6626		-1.3262		-0.2284		C.ar		1		UNL1		-0.0962
34		F		6.7168		-2.6389		0.5309		F		1		UNL1		-0.2677
35		F		2.2380		-2.4452		1.9497		F		1		UNL1		-0.2853
36		H		4.1761		-2.9566		0.6437		H		1		UNL1		0.1689
37		H		3.2812		0.9122		-1.0593		H		1		UNL1		0.1523
38		H		5.6975		1.3735		-1.2475		H		1		UNL1		0.1736
39		H		-0.3035		-2.7869		1.8491		H		1		UNL1		0.1705
40		H		-0.7972		-0.8375		-1.9591		H		1		UNL1		0.1591
41		H		1.6360		-0.4194		-2.0429		H		1		UNL1		0.1578
42		H		1.0101		2.8746		0.5048		H		1		UNL1		0.1545
43		H		-0.9547		1.3895		0.3565		H		1		UNL1		0.1914
44		H		-3.4947		4.8350		-0.1176		H		1		UNL1		0.1390
45		H		-1.5304		6.3135		0.0258		H		1		UNL1		0.1598
46		H		-4.3982		2.7793		-0.0406		H		1		UNL1		0.3495
47		H		-7.4407		-3.3725		-0.3214		H		1		UNL1		0.1900
48		H		-7.5762		-0.7455		-0.2605		H		1		UNL1		0.1634
@<TRIPOS>BOND
1		41		11		1
2		40		10		1
3		38		5		1
4		11		10		ar
5		11		12		ar
6		10		9		ar
7		37		4		1
8		5		4		ar
9		5		6		ar
10		4		3		ar
11		26		25		3
12		25		6		1
13		6		1		ar
14		47		32		1
15		32		33		ar
16		32		31		ar
17		48		33		1
18		33		15		ar
19		3		12		1
20		3		2		ar
21		31		14		ar
22		12		7		ar
23		15		14		ar
24		15		16		ar
25		14		13		ar
26		44		22		1
27		16		17		ar
28		9		27		1
29		9		8		ar
30		46		28		1
31		13		27		1
32		13		18		ar
33		17		18		ar
34		17		28		1
35		22		23		ar
36		22		21		ar
37		28		21		1
38		45		23		1
39		23		24		ar
40		21		20		ar
41		1		2		ar
42		1		34		1
43		2		36		1
44		24		29		1
45		24		19		ar
46		20		43		1
47		20		19		ar
48		29		30		3
49		19		42		1
50		7		8		ar
51		7		35		1
52		8		39		1

