@<TRIPOS>MOLECULE
SYL-2019-BC-102974-3-30
 48 52 0 0 0
SMALL
MULLIKEN_CHARGES

@<TRIPOS>ATOM
1		C		5.7119		-1.8991		0.9549		C.ar		1		UNL1		-0.1425
2		C		4.3274		-2.0091		0.9123		C.ar		1		UNL1		-0.1669
3		C		3.5951		-1.4881		-0.1693		C.ar		1		UNL1		0.1101
4		C		4.2963		-0.8411		-1.2020		C.ar		1		UNL1		-0.1779
5		C		5.6807		-0.7244		-1.1680		C.ar		1		UNL1		-0.1401
6		C		6.4012		-1.2570		-0.0869		C.ar		1		UNL1		0.1367
7		C		1.2934		-1.4845		0.8692		C.ar		1		UNL1		0.2579
8		C		-0.0898		-1.6106		0.7835		C.ar		1		UNL1		0.3131
9		C		-0.6911		-1.8708		-0.4462		C.ar		1		UNL1		0.2966
10		C		0.1001		-2.0258		-1.5800		C.ar		1		UNL1		-0.1679
11		C		1.4838		-1.9065		-1.4773		C.ar		1		UNL1		-0.1914
12		C		2.1198		-1.6299		-0.2536		C.ar		1		UNL1		0.0161
13		C		-2.9128		-1.0536		-0.2897		C.ar		1		UNL1		0.5710
14		C		-4.2734		-1.3476		-0.1969		C.ar		1		UNL1		-0.2301
15		C		-5.1369		-0.2496		0.0196		C.ar		1		UNL1		0.3269
16		N		-4.6864		1.0129		0.1287		N.ar		1		UNL1		-0.5822
17		C		-3.3617		1.1575		0.0173		C.ar		1		UNL1		0.6940
18		N		-2.4524		0.1784		-0.1893		N.ar		1		UNL1		-0.5530
19		C		0.7201		3.0831		-0.2829		C.ar		1		UNL1		-0.1557
20		C		-0.4778		2.3823		-0.2227		C.ar		1		UNL1		-0.1604
21		C		-1.6764		3.0654		0.0558		C.ar		1		UNL1		0.3846
22		C		-1.6309		4.4593		0.2676		C.ar		1		UNL1		-0.2047
23		C		-0.4340		5.1526		0.2046		C.ar		1		UNL1		-0.1402
24		C		0.7643		4.4709		-0.0729		C.ar		1		UNL1		0.1320
25		C		7.8299		-1.1469		-0.0467		C.1		1		UNL1		0.2396
26		N		8.9898		-1.0622		-0.0154		N.1		1		UNL1		-0.4729
27		O		-2.0580		-2.0875		-0.5195		O.3		1		UNL1		-0.5599
28		N		-2.9320		2.4644		0.1328		N.pl3		1		UNL1		-0.7757
29		C		2.0053		5.1791		-0.1434		C.1		1		UNL1		0.2266
30		N		3.0153		5.7550		-0.2039		N.1		1		UNL1		-0.4838
31		S		-5.1320		-2.8639		-0.2917		S.2		1		UNL1		0.2831
32		C		-6.6424		-2.0158		-0.0435		C.ar		1		UNL1		-0.3422
33		C		-6.5098		-0.6702		0.1042		C.ar		1		UNL1		-0.0960
34		F		-0.8373		-1.4674		1.8842		F		1		UNL1		-0.2666
35		F		1.8104		-1.2087		2.0796		F		1		UNL1		-0.2731
36		H		6.2672		-2.3126		1.7905		H		1		UNL1		0.1652
37		H		3.8111		-2.5128		1.7209		H		1		UNL1		0.1575
38		H		3.7484		-0.4060		-2.0323		H		1		UNL1		0.1497
39		H		6.2085		-0.2161		-1.9683		H		1		UNL1		0.1662
40		H		-0.3776		-2.2503		-2.5274		H		1		UNL1		0.1624
41		H		2.0948		-2.0537		-2.3615		H		1		UNL1		0.1561
42		H		1.6400		2.5476		-0.4962		H		1		UNL1		0.1545
43		H		-0.4966		1.3160		-0.3899		H		1		UNL1		0.1837
44		H		-2.5504		4.9979		0.4844		H		1		UNL1		0.1385
45		H		-0.4181		6.2250		0.3697		H		1		UNL1		0.1591
46		H		-3.7112		3.0880		0.3019		H		1		UNL1		0.3494
47		H		-7.5606		-2.5889		-0.0220		H		1		UNL1		0.1893
48		H		-7.3315		0.0163		0.2673		H		1		UNL1		0.1631
@<TRIPOS>BOND
1		40		10		1
2		41		11		1
3		38		4		1
4		39		5		1
5		10		11		ar
6		10		9		ar
7		11		12		ar
8		4		5		ar
9		4		3		ar
10		5		6		ar
11		27		9		1
12		27		13		1
13		42		19		1
14		9		8		ar
15		43		20		1
16		31		14		ar
17		31		32		ar
18		13		14		ar
19		13		18		ar
20		19		20		ar
21		19		24		ar
22		12		3		1
23		12		7		ar
24		20		21		ar
25		30		29		3
26		14		15		ar
27		18		17		ar
28		3		2		ar
29		29		24		1
30		6		25		1
31		6		1		ar
32		24		23		ar
33		25		26		3
34		32		47		1
35		32		33		ar
36		17		16		ar
37		17		28		1
38		15		33		ar
39		15		16		ar
40		21		28		1
41		21		22		ar
42		33		48		1
43		28		46		1
44		23		22		ar
45		23		45		1
46		22		44		1
47		8		7		ar
48		8		34		1
49		7		35		1
50		2		1		ar
51		2		37		1
52		1		36		1

