@<TRIPOS>MOLECULE
SYL-2019-jmc-11603-3-15
 51 55 0 0 0
SMALL
MULLIKEN_CHARGES

@<TRIPOS>ATOM
1		C		5.6609		-1.8403		0.2580		C.ar		1		UNL1		0.3635
2		C		4.3006		-2.0758		0.3778		C.ar		1		UNL1		-0.2386
3		C		3.3832		-1.1981		-0.2193		C.ar		1		UNL1		0.0740
4		C		3.8796		-0.0930		-0.9360		C.ar		1		UNL1		-0.1759
5		C		5.2457		0.1353		-1.0483		C.ar		1		UNL1		-0.1391
6		C		6.1668		-0.7411		-0.4489		C.ar		1		UNL1		0.0620
7		C		1.2340		-1.6425		1.0811		C.ar		1		UNL1		0.1374
8		C		-0.1494		-1.8587		1.0480		C.ar		1		UNL1		-0.2163
9		C		-0.8412		-1.8774		-0.1565		C.ar		1		UNL1		0.3714
10		C		-0.1872		-1.6802		-1.3667		C.ar		1		UNL1		-0.1540
11		C		1.1863		-1.4581		-1.3447		C.ar		1		UNL1		-0.1822
12		C		1.9151		-1.4419		-0.1430		C.ar		1		UNL1		0.0248
13		C		-3.1139		-1.1790		-0.1079		C.ar		1		UNL1		0.5640
14		C		-4.4694		-1.5205		-0.1255		C.ar		1		UNL1		-0.2315
15		C		-5.3897		-0.4501		-0.0804		C.ar		1		UNL1		0.3253
16		N		-5.0004		0.8373		-0.0226		N.ar		1		UNL1		-0.5832
17		C		-3.6775		1.0283		-0.0106		C.ar		1		UNL1		0.6886
18		N		-2.7161		0.0796		-0.0506		N.ar		1		UNL1		-0.5528
19		C		0.3531		3.0651		0.1457		C.ar		1		UNL1		-0.1611
20		C		-0.8243		2.3296		0.1052		C.ar		1		UNL1		-0.1646
21		C		-2.0653		2.9947		0.0850		C.ar		1		UNL1		0.3821
22		C		-2.0804		4.4054		0.1085		C.ar		1		UNL1		-0.2047
23		C		-0.9027		5.1325		0.1476		C.ar		1		UNL1		-0.1410
24		C		0.3374		4.4694		0.1659		C.ar		1		UNL1		0.1322
25		C		7.5771		-0.5309		-0.5524		C.1		1		UNL1		0.2618
26		N		8.7217		-0.3485		-0.6474		N.1		1		UNL1		-0.4691
27		O		-2.2074		-2.1838		-0.1498		O.3		1		UNL1		-0.5666
28		N		-3.3042		2.3578		0.0473		N.pl3		1		UNL1		-0.7744
29		C		1.5609		5.2094		0.2020		C.1		1		UNL1		0.2243
30		N		2.5596		5.8074		0.2287		N.1		1		UNL1		-0.4849
31		S		-5.2574		-3.0760		-0.1968		S.2		1		UNL1		0.2792
32		C		-6.8158		-2.2810		-0.1656		C.ar		1		UNL1		-0.3430
33		C		-6.7479		-0.9237		-0.1052		C.ar		1		UNL1		-0.0969
34		F		6.5235		-2.6953		0.8272		F		1		UNL1		-0.2681
35		C		1.9261		-1.6037		2.4266		C.3		1		UNL1		-0.5376
36		H		3.9730		-2.9577		0.9162		H		1		UNL1		0.1613
37		H		3.1823		0.6003		-1.3957		H		1		UNL1		0.1555
38		H		5.6173		0.9961		-1.5942		H		1		UNL1		0.1744
39		H		-0.6996		-2.0068		1.9724		H		1		UNL1		0.1450
40		H		-0.7418		-1.7052		-2.2987		H		1		UNL1		0.1518
41		H		1.7157		-1.3146		-2.2821		H		1		UNL1		0.1502
42		H		1.3048		2.5430		0.1645		H		1		UNL1		0.1527
43		H		-0.7950		1.2505		0.0884		H		1		UNL1		0.1960
44		H		-3.0327		4.9305		0.0940		H		1		UNL1		0.1378
45		H		-0.9343		6.2171		0.1636		H		1		UNL1		0.1584
46		H		-4.1153		2.9633		0.0611		H		1		UNL1		0.3482
47		H		-7.7098		-2.8907		-0.1950		H		1		UNL1		0.1880
48		H		-7.6065		-0.2640		-0.0781		H		1		UNL1		0.1615
49		H		2.3541		-2.5782		2.6940		H		1		UNL1		0.1710
50		H		1.2144		-1.3393		3.2145		H		1		UNL1		0.1673
51		H		2.7423		-0.8762		2.4474		H		1		UNL1		0.1759
@<TRIPOS>BOND
1		40		10		1
2		41		11		1
3		38		5		1
4		37		4		1
5		10		11		ar
6		10		9		ar
7		11		12		ar
8		5		4		ar
9		5		6		ar
10		4		3		ar
11		26		25		3
12		25		6		1
13		6		1		ar
14		3		12		1
15		3		2		ar
16		31		32		ar
17		31		14		ar
18		47		32		1
19		32		33		ar
20		9		27		1
21		9		8		ar
22		27		13		1
23		12		7		ar
24		14		13		ar
25		14		15		ar
26		13		18		ar
27		33		15		ar
28		33		48		1
29		15		16		ar
30		18		17		ar
31		16		17		ar
32		17		28		1
33		28		46		1
34		28		21		1
35		21		20		ar
36		21		22		ar
37		43		20		1
38		44		22		1
39		20		19		ar
40		22		23		ar
41		19		42		1
42		19		24		ar
43		23		45		1
44		23		24		ar
45		24		29		1
46		29		30		3
47		1		2		ar
48		1		34		1
49		2		36		1
50		8		7		ar
51		8		39		1
52		7		35		1
53		35		51		1
54		35		49		1
55		35		50		1

