@<TRIPOS>MOLECULE
SYL-2019-jmc-11603-3-6
 48 52 0 0 0
SMALL
MULLIKEN_CHARGES

@<TRIPOS>ATOM
1		C		-5.7345		-1.8855		-0.7055		C.ar		1		UNL1		-0.2108
2		C		-4.3595		-2.0505		-0.7352		C.ar		1		UNL1		0.3346
3		C		-3.4865		-1.3993		0.1505		C.ar		1		UNL1		0.0233
4		C		-4.0834		-0.5428		1.0940		C.ar		1		UNL1		-0.1880
5		C		-5.4587		-0.3508		1.1537		C.ar		1		UNL1		-0.1344
6		C		-6.2954		-1.0258		0.2505		C.ar		1		UNL1		0.1367
7		C		-1.3066		-1.7006		-1.0895		C.ar		1		UNL1		-0.1768
8		C		0.0773		-1.8550		-1.0962		C.ar		1		UNL1		-0.1541
9		C		0.7630		-1.9150		0.1135		C.ar		1		UNL1		0.3619
10		C		0.0886		-1.8340		1.3275		C.ar		1		UNL1		-0.1524
11		C		-1.2952		-1.6768		1.3245		C.ar		1		UNL1		-0.1852
12		C		-2.0166		-1.6018		0.1205		C.ar		1		UNL1		0.1051
13		C		3.0042		-1.1196		0.0651		C.ar		1		UNL1		0.5639
14		C		4.3723		-1.4066		0.0700		C.ar		1		UNL1		-0.2315
15		C		5.2483		-0.2998		0.0227		C.ar		1		UNL1		0.3255
16		N		4.8065		0.9708		-0.0263		N.ar		1		UNL1		-0.5834
17		C		3.4769		1.1087		-0.0267		C.ar		1		UNL1		0.6890
18		N		2.5545		0.1217		0.0171		N.ar		1		UNL1		-0.5530
19		C		-0.6305		2.9943		-0.1281		C.ar		1		UNL1		-0.1593
20		C		0.5739		2.3028		-0.1028		C.ar		1		UNL1		-0.1644
21		C		1.7895		3.0131		-0.0990		C.ar		1		UNL1		0.3825
22		C		1.7529		4.4233		-0.1235		C.ar		1		UNL1		-0.2049
23		C		0.5488		5.1065		-0.1479		C.ar		1		UNL1		-0.1410
24		C		-0.6661		4.3982		-0.1496		C.ar		1		UNL1		0.1315
25		C		-7.7161		-0.8418		0.2999		C.1		1		UNL1		0.2418
26		N		-8.8691		-0.6949		0.3440		N.1		1		UNL1		-0.4695
27		F		-3.8563		-2.8959		-1.6596		F		1		UNL1		-0.2855
28		O		2.1402		-2.1614		0.1132		O.3		1		UNL1		-0.5645
29		N		3.0518		2.4226		-0.0761		N.pl3		1		UNL1		-0.7745
30		C		-1.9157		5.0942		-0.1705		C.1		1		UNL1		0.2253
31		N		-2.9342		5.6582		-0.1847		N.1		1		UNL1		-0.4850
32		S		5.2230		-2.9293		0.1277		S.2		1		UNL1		0.2796
33		C		6.7477		-2.0717		0.0879		C.ar		1		UNL1		-0.3430
34		C		6.6246		-0.7181		0.0343		C.ar		1		UNL1		-0.0968
35		H		-6.3530		-2.4263		-1.4126		H		1		UNL1		0.1765
36		H		-3.4434		0.0009		1.7818		H		1		UNL1		0.1576
37		H		-5.8884		0.3242		1.8857		H		1		UNL1		0.1686
38		H		-1.8371		-1.6497		-2.0329		H		1		UNL1		0.1565
39		H		0.6255		-1.9287		-2.0297		H		1		UNL1		0.1542
40		H		0.6428		-1.9053		2.2577		H		1		UNL1		0.1533
41		H		-1.8245		-1.6363		2.2718		H		1		UNL1		0.1486
42		H		-1.5624		2.4376		-0.1330		H		1		UNL1		0.1536
43		H		0.5847		1.2234		-0.0855		H		1		UNL1		0.1948
44		H		2.6854		4.9829		-0.1219		H		1		UNL1		0.1376
45		H		0.5402		6.1915		-0.1653		H		1		UNL1		0.1582
46		H		3.8392		3.0584		-0.0960		H		1		UNL1		0.3483
47		H		7.6659		-2.6450		0.1072		H		1		UNL1		0.1880
48		H		7.4556		-0.0241		0.0034		H		1		UNL1		0.1615
@<TRIPOS>BOND
1		38		7		1
2		39		8		1
3		27		2		1
4		35		1		1
5		8		7		ar
6		8		9		ar
7		7		12		ar
8		2		1		ar
9		2		3		ar
10		1		6		ar
11		31		30		3
12		30		24		1
13		45		23		1
14		24		23		ar
15		24		19		ar
16		23		22		ar
17		42		19		1
18		19		20		ar
19		22		44		1
20		22		21		ar
21		20		21		ar
22		20		43		1
23		21		29		1
24		46		29		1
25		29		17		1
26		17		16		ar
27		17		18		ar
28		16		15		ar
29		48		34		1
30		18		13		ar
31		15		34		ar
32		15		14		ar
33		34		33		ar
34		13		14		ar
35		13		28		1
36		14		32		ar
37		33		47		1
38		33		32		ar
39		28		9		1
40		9		10		ar
41		12		3		1
42		12		11		ar
43		3		4		ar
44		6		25		1
45		6		5		ar
46		25		26		3
47		4		5		ar
48		4		36		1
49		5		37		1
50		11		10		ar
51		11		41		1
52		10		40		1

