@<TRIPOS>MOLECULE
SYL-2019-jmc-11603-3-16
 48 52 0 0 0
SMALL
MULLIKEN_CHARGES

@<TRIPOS>ATOM
1		C		5.4579		-0.1154		0.1456		C.ar		1		UNL1		-0.1438
2		C		4.0847		-0.2877		0.2922		C.ar		1		UNL1		-0.0985
3		C		3.3875		-1.2861		-0.4091		C.ar		1		UNL1		0.0575
4		C		4.1231		-2.1036		-1.2811		C.ar		1		UNL1		-0.1506
5		C		5.4950		-1.9517		-1.4445		C.ar		1		UNL1		-0.1347
6		C		6.1693		-0.9535		-0.7253		C.ar		1		UNL1		0.1417
7		C		1.3085		-2.1372		0.7851		C.ar		1		UNL1		-0.1033
8		C		-0.0725		-2.3160		0.8517		C.ar		1		UNL1		-0.1681
9		C		-0.8661		-1.8350		-0.1842		C.ar		1		UNL1		0.3676
10		C		-0.3055		-1.1920		-1.2858		C.ar		1		UNL1		-0.1410
11		C		1.0751		-1.0179		-1.3248		C.ar		1		UNL1		-0.1639
12		C		1.9120		-1.4761		-0.2952		C.ar		1		UNL1		0.0503
13		C		-3.1626		-1.1499		-0.1308		C.ar		1		UNL1		0.5665
14		C		-4.5015		-1.5461		-0.1652		C.ar		1		UNL1		-0.2342
15		C		-5.4637		-0.5117		-0.1595		C.ar		1		UNL1		0.3270
16		N		-5.1250		0.7895		-0.1256		N.ar		1		UNL1		-0.5824
17		C		-3.8106		1.0350		-0.0943		C.ar		1		UNL1		0.6893
18		N		-2.8118		0.1225		-0.0939		N.ar		1		UNL1		-0.5537
19		C		0.1219		3.2621		0.1210		C.ar		1		UNL1		-0.1633
20		C		-1.0206		2.4719		0.0896		C.ar		1		UNL1		-0.1697
21		C		-2.2869		3.0741		-0.0277		C.ar		1		UNL1		0.3825
22		C		-2.3672		4.4802		-0.1057		C.ar		1		UNL1		-0.2050
23		C		-1.2255		5.2629		-0.0733		C.ar		1		UNL1		-0.1401
24		C		0.0410		4.6618		0.0390		C.ar		1		UNL1		0.1306
25		C		7.5851		-0.7833		-0.8804		C.1		1		UNL1		0.2447
26		N		8.7331		-0.6513		-1.0107		N.1		1		UNL1		-0.4677
27		O		-2.2249		-2.1314		-0.1184		O.3		1		UNL1		-0.5601
28		N		-3.4955		2.3785		-0.0648		N.pl3		1		UNL1		-0.7743
29		C		1.2253		5.4642		0.0682		C.1		1		UNL1		0.2261
30		N		2.1878		6.1188		0.0897		N.1		1		UNL1		-0.4844
31		S		-5.2268		-3.1328		-0.2136		S.2		1		UNL1		0.2807
32		C		-6.8153		-2.3985		-0.2264		C.ar		1		UNL1		-0.3424
33		C		-6.8019		-1.0388		-0.1960		C.ar		1		UNL1		-0.0963
34		CL		3.2332		0.7995		1.3725		Cl		1		UNL1		0.0232
35		CL		2.2850		-2.7874		2.0887		Cl		1		UNL1		0.0162
36		H		5.9701		0.6647		0.6966		H		1		UNL1		0.1890
37		H		3.5986		-2.8784		-1.8317		H		1		UNL1		0.1602
38		H		6.0459		-2.5977		-2.1196		H		1		UNL1		0.1690
39		H		-0.5276		-2.8305		1.6897		H		1		UNL1		0.1758
40		H		-0.9350		-0.8313		-2.0906		H		1		UNL1		0.1616
41		H		1.5246		-0.5104		-2.1731		H		1		UNL1		0.1597
42		H		1.0933		2.7865		0.2140		H		1		UNL1		0.1699
43		H		-0.9415		1.3973		0.1561		H		1		UNL1		0.1920
44		H		-3.3405		4.9570		-0.1961		H		1		UNL1		0.1374
45		H		-1.3056		6.3434		-0.1361		H		1		UNL1		0.1582
46		H		-4.3323		2.9475		-0.0921		H		1		UNL1		0.3490
47		H		-7.6842		-3.0436		-0.2562		H		1		UNL1		0.1892
48		H		-7.6860		-0.4130		-0.1978		H		1		UNL1		0.1628
@<TRIPOS>BOND
1		41		11		1
2		38		5		1
3		40		10		1
4		37		4		1
5		5		4		ar
6		5		6		ar
7		11		10		ar
8		11		12		ar
9		10		9		ar
10		4		3		ar
11		26		25		3
12		25		6		1
13		6		1		ar
14		3		12		1
15		3		2		ar
16		12		7		ar
17		47		32		1
18		32		31		ar
19		32		33		ar
20		31		14		ar
21		48		33		1
22		44		22		1
23		33		15		ar
24		9		27		1
25		9		8		ar
26		14		15		ar
27		14		13		ar
28		15		16		ar
29		45		23		1
30		13		27		1
31		13		18		ar
32		16		17		ar
33		22		23		ar
34		22		21		ar
35		17		18		ar
36		17		28		1
37		46		28		1
38		23		24		ar
39		28		21		1
40		21		20		ar
41		24		29		1
42		24		19		ar
43		29		30		3
44		20		19		ar
45		20		43		1
46		19		42		1
47		1		2		ar
48		1		36		1
49		2		34		1
50		7		8		ar
51		7		35		1
52		8		39		1

