@<TRIPOS>MOLECULE
SYL-2019-jmc-11603-3-22
 54 58 0 0 0
SMALL
MULLIKEN_CHARGES

@<TRIPOS>ATOM
1		C		5.7855		-1.9728		0.3713		C.ar		1		UNL1		-0.2069
2		C		4.4144		-2.2278		0.4565		C.ar		1		UNL1		0.1464
3		C		3.5217		-1.3638		-0.2217		C.ar		1		UNL1		0.0278
4		C		4.0395		-0.2898		-0.9661		C.ar		1		UNL1		-0.1761
5		C		5.4038		-0.0399		-1.0410		C.ar		1		UNL1		-0.1442
6		C		6.2898		-0.8888		-0.3622		C.ar		1		UNL1		0.1474
7		C		1.3288		-1.6089		1.0089		C.ar		1		UNL1		-0.2492
8		C		-0.0621		-1.7501		1.0526		C.ar		1		UNL1		0.1755
9		C		-0.7307		-1.8396		-0.1739		C.ar		1		UNL1		0.2905
10		C		-0.0584		-1.7984		-1.3893		C.ar		1		UNL1		-0.1489
11		C		1.3269		-1.6501		-1.4013		C.ar		1		UNL1		-0.1883
12		C		2.0431		-1.5565		-0.1985		C.ar		1		UNL1		0.0779
13		C		-2.9722		-1.0330		-0.1623		C.ar		1		UNL1		0.5705
14		C		-4.3417		-1.3096		-0.2140		C.ar		1		UNL1		-0.2334
15		C		-5.2118		-0.1977		-0.1871		C.ar		1		UNL1		0.3253
16		N		-4.7641		1.0698		-0.1153		N.ar		1		UNL1		-0.5836
17		C		-3.4344		1.1989		-0.0695		C.ar		1		UNL1		0.6878
18		N		-2.5174		0.2061		-0.0884		N.ar		1		UNL1		-0.5540
19		C		0.6823		3.0581		0.1310		C.ar		1		UNL1		-0.1609
20		C		-0.5250		2.3746		0.0615		C.ar		1		UNL1		-0.1664
21		C		-1.7371		3.0909		0.0707		C.ar		1		UNL1		0.3822
22		C		-1.6940		4.4988		0.1503		C.ar		1		UNL1		-0.2050
23		C		-0.4872		5.1741		0.2174		C.ar		1		UNL1		-0.1408
24		C		0.7242		4.4598		0.2089		C.ar		1		UNL1		0.1318
25		C		7.7046		-0.6637		-0.4248		C.1		1		UNL1		0.2361
26		N		8.8532		-0.4857		-0.4757		N.1		1		UNL1		-0.4778
27		O		-2.1140		-2.0784		-0.1875		O.3		1		UNL1		-0.5653
28		N		-3.0024		2.5091		0.0063		N.pl3		1		UNL1		-0.7749
29		C		1.9762		5.1486		0.2760		C.1		1		UNL1		0.2254
30		N		2.9959		5.7080		0.3286		N.1		1		UNL1		-0.4844
31		S		-5.1995		-2.8264		-0.3106		S.2		1		UNL1		0.2776
32		C		-6.7195		-1.9595		-0.3131		C.ar		1		UNL1		-0.3429
33		C		-6.5897		-0.6071		-0.2461		C.ar		1		UNL1		-0.0969
34		C		-0.8144		-1.7918		2.3586		C.3		1		UNL1		-0.5381
35		C		3.9468		-3.4351		1.2398		C.3		1		UNL1		-0.5347
36		H		6.4833		-2.6351		0.8752		H		1		UNL1		0.1531
37		H		3.3486		0.3696		-1.4838		H		1		UNL1		0.1500
38		H		5.7839		0.8007		-1.6119		H		1		UNL1		0.1642
39		H		1.8669		-1.5162		1.9482		H		1		UNL1		0.1390
40		H		-0.6218		-1.8886		-2.3126		H		1		UNL1		0.1504
41		H		1.8581		-1.6253		-2.3482		H		1		UNL1		0.1471
42		H		1.6115		2.4966		0.1265		H		1		UNL1		0.1563
43		H		-0.5399		1.2968		-0.0014		H		1		UNL1		0.1963
44		H		-2.6238		5.0630		0.1588		H		1		UNL1		0.1374
45		H		-0.4735		6.2576		0.2771		H		1		UNL1		0.1582
46		H		-3.7859		3.1499		0.0153		H		1		UNL1		0.3482
47		H		-7.6401		-2.5267		-0.3661		H		1		UNL1		0.1878
48		H		-7.4169		0.0921		-0.2373		H		1		UNL1		0.1615
49		H		-1.4410		-0.9002		2.4810		H		1		UNL1		0.1789
50		H		-0.1231		-1.8354		3.2048		H		1		UNL1		0.1608
51		H		-1.4769		-2.6629		2.4095		H		1		UNL1		0.1750
52		H		3.0920		-3.9225		0.7621		H		1		UNL1		0.1740
53		H		3.6379		-3.1681		2.2581		H		1		UNL1		0.1685
54		H		4.7537		-4.1688		1.3298		H		1		UNL1		0.1642
@<TRIPOS>BOND
1		41		11		1
2		40		10		1
3		38		5		1
4		37		4		1
5		11		10		ar
6		11		12		ar
7		10		9		ar
8		5		4		ar
9		5		6		ar
10		4		3		ar
11		26		25		3
12		25		6		1
13		47		32		1
14		6		1		ar
15		32		31		ar
16		32		33		ar
17		31		14		ar
18		33		48		1
19		33		15		ar
20		3		12		1
21		3		2		ar
22		14		15		ar
23		14		13		ar
24		12		7		ar
25		27		9		1
26		27		13		1
27		15		16		ar
28		9		8		ar
29		13		18		ar
30		16		17		ar
31		18		17		ar
32		17		28		1
33		43		20		1
34		28		46		1
35		28		21		1
36		20		21		ar
37		20		19		ar
38		21		22		ar
39		42		19		1
40		19		24		ar
41		22		44		1
42		22		23		ar
43		24		23		ar
44		24		29		1
45		23		45		1
46		29		30		3
47		1		2		ar
48		1		36		1
49		2		35		1
50		52		35		1
51		7		8		ar
52		7		39		1
53		8		34		1
54		35		54		1
55		35		53		1
56		34		51		1
57		34		49		1
58		34		50		1

