@<TRIPOS>MOLECULE
SYL-2019-BC-102974-3-25
 50 54 0 0 0
SMALL
MULLIKEN_CHARGES

@<TRIPOS>ATOM
1		C		5.7022		-0.4012		0.6111		C.ar		1		UNL1		-0.1396
2		C		4.3183		-0.5160		0.5524		C.ar		1		UNL1		-0.1806
3		C		3.7064		-1.5349		-0.1984		C.ar		1		UNL1		0.1026
4		C		4.5282		-2.4398		-0.8922		C.ar		1		UNL1		-0.1797
5		C		5.9129		-2.3350		-0.8409		C.ar		1		UNL1		-0.1396
6		C		6.5117		-1.3124		-0.0869		C.ar		1		UNL1		0.1363
7		C		1.4396		-1.3779		0.8629		C.ar		1		UNL1		-0.2264
8		C		0.0511		-1.4888		0.8178		C.ar		1		UNL1		0.2955
9		C		-0.5952		-1.8587		-0.3748		C.ar		1		UNL1		0.3516
10		C		0.1870		-2.1328		-1.4958		C.ar		1		UNL1		-0.1780
11		C		1.5731		-2.0382		-1.4418		C.ar		1		UNL1		-0.1647
12		C		2.2285		-1.6509		-0.2603		C.ar		1		UNL1		0.0884
13		C		-2.8117		-0.9961		-0.3718		C.ar		1		UNL1		0.5872
14		C		-4.1761		-1.2742		-0.3360		C.ar		1		UNL1		-0.2260
15		C		-5.0367		-0.1580		-0.2219		C.ar		1		UNL1		0.3270
16		N		-4.5775		1.1044		-0.1557		N.ar		1		UNL1		-0.5820
17		C		-3.2481		1.2316		-0.2038		C.ar		1		UNL1		0.6971
18		N		-2.3411		0.2348		-0.3150		N.ar		1		UNL1		-0.5615
19		C		0.8615		3.0985		-0.4521		C.ar		1		UNL1		-0.1564
20		C		-0.3493		2.4188		-0.4252		C.ar		1		UNL1		-0.1595
21		C		-1.5418		3.1192		-0.1632		C.ar		1		UNL1		0.3866
22		C		-1.4764		4.5101		0.0632		C.ar		1		UNL1		-0.2036
23		C		-0.2663		5.1824		0.0351		C.ar		1		UNL1		-0.1399
24		C		0.9260		4.4825		-0.2227		C.ar		1		UNL1		0.1324
25		C		7.9400		-1.2027		-0.0306		C.1		1		UNL1		0.2408
26		N		9.0993		-1.1182		0.0136		N.1		1		UNL1		-0.4703
27		O		-1.9538		-2.0442		-0.5156		O.3		1		UNL1		-0.5586
28		N		-2.8081		2.5385		-0.1261		N.pl3		1		UNL1		-0.7761
29		C		2.1826		5.1654		-0.2503		C.1		1		UNL1		0.2254
30		N		3.2080		5.7164		-0.2724		N.1		1		UNL1		-0.4842
31		S		-5.0453		-2.7853		-0.3867		S.2		1		UNL1		0.2889
32		C		-6.5563		-1.9119		-0.2642		C.ar		1		UNL1		-0.3416
33		C		-6.4165		-0.5611		-0.1840		C.ar		1		UNL1		-0.0958
34		N		-0.6761		-1.2408		2.0738		N.pl3		1		UNL1		0.3719
35		O		-0.0677		-0.6632		2.9728		O.2		1		UNL1		-0.3829
36		O		-1.8339		-1.6445		2.1620		O.2		1		UNL1		-0.3890
37		H		6.1619		0.3957		1.1864		H		1		UNL1		0.1727
38		H		3.7049		0.2104		1.0773		H		1		UNL1		0.1598
39		H		4.0794		-3.2519		-1.4563		H		1		UNL1		0.1490
40		H		6.5371		-3.0455		-1.3731		H		1		UNL1		0.1661
41		H		1.8895		-1.0996		1.8077		H		1		UNL1		0.1962
42		H		-0.3200		-2.4085		-2.4144		H		1		UNL1		0.1678
43		H		2.1508		-2.2352		-2.3396		H		1		UNL1		0.1596
44		H		1.7757		2.5502		-0.6574		H		1		UNL1		0.1516
45		H		-0.3830		1.3549		-0.6045		H		1		UNL1		0.1795
46		H		-2.3908		5.0623		0.2672		H		1		UNL1		0.1398
47		H		-0.2351		6.2522		0.2143		H		1		UNL1		0.1597
48		H		-3.5850		3.1759		-0.0037		H		1		UNL1		0.3500
49		H		-7.4808		-2.4750		-0.2561		H		1		UNL1		0.1892
50		H		-7.2374		0.1402		-0.0987		H		1		UNL1		0.1630
@<TRIPOS>BOND
1		42		10		1
2		43		11		1
3		10		11		ar
4		10		9		ar
5		39		4		1
6		11		12		ar
7		40		5		1
8		4		5		ar
9		4		3		ar
10		5		6		ar
11		44		19		1
12		45		20		1
13		27		9		1
14		27		13		1
15		19		20		ar
16		19		24		ar
17		20		21		ar
18		31		14		ar
19		31		32		ar
20		9		8		ar
21		13		14		ar
22		13		18		ar
23		14		15		ar
24		18		17		ar
25		30		29		3
26		32		49		1
27		32		33		ar
28		12		3		1
29		12		7		ar
30		29		24		1
31		24		23		ar
32		15		33		ar
33		15		16		ar
34		17		16		ar
35		17		28		1
36		3		2		ar
37		33		50		1
38		21		28		1
39		21		22		ar
40		28		48		1
41		6		25		1
42		6		1		ar
43		25		26		3
44		23		22		ar
45		23		47		1
46		22		46		1
47		2		1		ar
48		2		38		1
49		1		37		1
50		8		7		ar
51		8		34		1
52		7		41		1
53		34		36		2
54		34		35		2

