@<TRIPOS>MOLECULE
SYL-2019-jmc-11603-3-14
 51 55 0 0 0
SMALL
MULLIKEN_CHARGES

@<TRIPOS>ATOM
1		C		5.7774		-1.9959		-0.0015		C.ar		1		UNL1		-0.2100
2		C		4.4103		-2.1984		0.0998		C.ar		1		UNL1		0.3493
3		C		3.4634		-1.2078		-0.1907		C.ar		1		UNL1		-0.0178
4		C		3.9647		0.0323		-0.6225		C.ar		1		UNL1		-0.1787
5		C		5.3296		0.2751		-0.7387		C.ar		1		UNL1		-0.1359
6		C		6.2449		-0.7425		-0.4249		C.ar		1		UNL1		0.1346
7		C		1.3547		-1.8230		1.0968		C.ar		1		UNL1		0.1547
8		C		-0.0329		-2.0086		1.0824		C.ar		1		UNL1		-0.2245
9		C		-0.7638		-1.8354		-0.0866		C.ar		1		UNL1		0.3703
10		C		-0.1468		-1.4697		-1.2773		C.ar		1		UNL1		-0.1505
11		C		1.2316		-1.2760		-1.2718		C.ar		1		UNL1		-0.1778
12		C		1.9964		-1.4547		-0.1079		C.ar		1		UNL1		0.0388
13		C		-3.0351		-1.1162		-0.0786		C.ar		1		UNL1		0.5648
14		C		-4.3905		-1.4546		-0.1369		C.ar		1		UNL1		-0.2325
15		C		-5.3089		-0.3819		-0.1493		C.ar		1		UNL1		0.3254
16		N		-4.9182		0.9058		-0.1065		N.ar		1		UNL1		-0.5834
17		C		-3.5962		1.0938		-0.0496		C.ar		1		UNL1		0.6887
18		N		-2.6366		0.1428		-0.0335		N.ar		1		UNL1		-0.5526
19		C		0.4278		3.1212		0.2687		C.ar		1		UNL1		-0.1621
20		C		-0.7495		2.3889		0.1924		C.ar		1		UNL1		-0.1647
21		C		-1.9828		3.0573		0.0687		C.ar		1		UNL1		0.3823
22		C		-1.9899		4.4677		0.0263		C.ar		1		UNL1		-0.2046
23		C		-0.8118		5.1914		0.1007		C.ar		1		UNL1		-0.1411
24		C		0.4207		4.5251		0.2223		C.ar		1		UNL1		0.1331
25		C		7.6553		-0.5101		-0.5387		C.1		1		UNL1		0.2429
26		N		8.7993		-0.3225		-0.6324		N.1		1		UNL1		-0.4698
27		O		-2.1333		-2.1251		-0.0601		O.3		1		UNL1		-0.5648
28		N		-3.2212		2.4237		-0.0089		N.pl3		1		UNL1		-0.7743
29		C		1.6458		5.2598		0.2950		C.1		1		UNL1		0.2228
30		N		2.6470		5.8514		0.3512		N.1		1		UNL1		-0.4854
31		S		-5.1795		-3.0098		-0.2038		S.2		1		UNL1		0.2799
32		C		-6.7358		-2.2113		-0.2472		C.ar		1		UNL1		-0.3431
33		C		-6.6666		-0.8532		-0.2140		C.ar		1		UNL1		-0.0970
34		F		3.9837		-3.4204		0.4831		F		1		UNL1		-0.2840
35		C		2.1088		-1.9994		2.3941		C.3		1		UNL1		-0.5448
36		H		6.4599		-2.8046		0.2332		H		1		UNL1		0.1760
37		H		3.2588		0.8227		-0.8601		H		1		UNL1		0.1620
38		H		5.6909		1.2446		-1.0641		H		1		UNL1		0.1719
39		H		-0.5565		-2.2863		1.9922		H		1		UNL1		0.1453
40		H		-0.7305		-1.3433		-2.1827		H		1		UNL1		0.1508
41		H		1.7336		-0.9996		-2.1945		H		1		UNL1		0.1489
42		H		1.3732		2.5973		0.3715		H		1		UNL1		0.1529
43		H		-0.7262		1.3100		0.2262		H		1		UNL1		0.1964
44		H		-2.9362		4.9951		-0.0691		H		1		UNL1		0.1379
45		H		-0.8370		6.2757		0.0640		H		1		UNL1		0.1583
46		H		-4.0298		3.0315		-0.0476		H		1		UNL1		0.3481
47		H		-7.6299		-2.8198		-0.2961		H		1		UNL1		0.1877
48		H		-7.5238		-0.1913		-0.2330		H		1		UNL1		0.1612
49		H		2.6533		-2.9494		2.4093		H		1		UNL1		0.1845
50		H		1.4233		-1.9901		3.2463		H		1		UNL1		0.1617
51		H		2.8452		-1.2023		2.5435		H		1		UNL1		0.1677
@<TRIPOS>BOND
1		41		11		1
2		40		10		1
3		10		11		ar
4		10		9		ar
5		11		12		ar
6		38		5		1
7		37		4		1
8		5		4		ar
9		5		6		ar
10		26		25		3
11		4		3		ar
12		25		6		1
13		6		1		ar
14		47		32		1
15		32		33		ar
16		32		31		ar
17		48		33		1
18		33		15		ar
19		31		14		ar
20		3		12		1
21		3		2		ar
22		15		14		ar
23		15		16		ar
24		14		13		ar
25		12		7		ar
26		16		17		ar
27		9		27		1
28		9		8		ar
29		13		27		1
30		13		18		ar
31		44		22		1
32		17		18		ar
33		17		28		1
34		46		28		1
35		28		21		1
36		1		2		ar
37		1		36		1
38		22		21		ar
39		22		23		ar
40		45		23		1
41		21		20		ar
42		2		34		1
43		23		24		ar
44		20		43		1
45		20		19		ar
46		24		19		ar
47		24		29		1
48		19		42		1
49		29		30		3
50		8		7		ar
51		8		39		1
52		7		35		1
53		35		49		1
54		35		51		1
55		35		50		1

