@<TRIPOS>MOLECULE
SYL-2019-BC-102974-3-20
 48 52 0 0 0
SMALL
MULLIKEN_CHARGES

@<TRIPOS>ATOM
1		C		5.8328		-2.1390		-0.2063		C.ar		1		UNL1		-0.1419
2		C		4.4647		-2.3314		-0.0567		C.ar		1		UNL1		-0.1542
3		C		3.5592		-1.2866		-0.3041		C.ar		1		UNL1		0.0795
4		C		4.0647		-0.0409		-0.7105		C.ar		1		UNL1		-0.1754
5		C		5.4323		0.1651		-0.8590		C.ar		1		UNL1		-0.1406
6		C		6.3274		-0.8866		-0.6075		C.ar		1		UNL1		0.1349
7		C		1.4318		-1.9924		0.9336		C.ar		1		UNL1		-0.1296
8		C		0.0477		-2.1645		0.9671		C.ar		1		UNL1		-0.1629
9		C		-0.7041		-1.8310		-0.1527		C.ar		1		UNL1		0.3655
10		C		-0.0997		-1.3275		-1.3017		C.ar		1		UNL1		-0.1392
11		C		1.2805		-1.1592		-1.3090		C.ar		1		UNL1		-0.1785
12		C		2.0880		-1.4890		-0.2042		C.ar		1		UNL1		0.0775
13		C		-2.9780		-1.1059		-0.1367		C.ar		1		UNL1		0.5638
14		C		-4.3281		-1.4555		-0.2156		C.ar		1		UNL1		-0.2322
15		C		-5.2546		-0.3888		-0.2201		C.ar		1		UNL1		0.3261
16		N		-4.8733		0.8998		-0.1522		N.ar		1		UNL1		-0.5820
17		C		-3.5535		1.0987		-0.0776		C.ar		1		UNL1		0.6898
18		N		-2.5865		0.1534		-0.0668		N.ar		1		UNL1		-0.5531
19		C		0.4435		3.1672		0.3452		C.ar		1		UNL1		-0.1607
20		C		-0.7244		2.4225		0.2433		C.ar		1		UNL1		-0.1637
21		C		-1.9614		3.0771		0.0921		C.ar		1		UNL1		0.3826
22		C		-1.9839		4.4870		0.0505		C.ar		1		UNL1		-0.2045
23		C		-0.8157		5.2235		0.1507		C.ar		1		UNL1		-0.1405
24		C		0.4211		4.5707		0.2982		C.ar		1		UNL1		0.1329
25		C		7.7387		-0.6870		-0.7632		C.1		1		UNL1		0.2399
26		N		8.8841		-0.5292		-0.8917		N.1		1		UNL1		-0.4740
27		O		-2.0691		-2.1133		-0.1194		O.3		1		UNL1		-0.5617
28		N		-3.1920		2.4301		-0.0120		N.pl3		1		UNL1		-0.7743
29		C		1.6352		5.3209		0.3957		C.1		1		UNL1		0.2249
30		N		2.6259		5.9279		0.4708		N.1		1		UNL1		-0.4835
31		S		-5.1048		-3.0150		-0.3158		S.2		1		UNL1		0.2820
32		C		-6.6663		-2.2266		-0.3629		C.ar		1		UNL1		-0.3425
33		C		-6.6079		-0.8688		-0.3070		C.ar		1		UNL1		-0.0964
34		CL		2.3156		-2.3804		2.4033		Cl		1		UNL1		0.0084
35		H		6.5243		-2.9543		-0.0201		H		1		UNL1		0.1640
36		H		4.0932		-3.3058		0.2420		H		1		UNL1		0.1588
37		H		3.3784		0.7799		-0.8979		H		1		UNL1		0.1534
38		H		5.8118		1.1350		-1.1636		H		1		UNL1		0.1691
39		H		-0.4414		-2.5483		1.8545		H		1		UNL1		0.1745
40		H		-0.6977		-1.0794		-2.1714		H		1		UNL1		0.1586
41		H		1.7640		-0.7830		-2.2055		H		1		UNL1		0.1585
42		H		1.3922		2.6539		0.4689		H		1		UNL1		0.1561
43		H		-0.6903		1.3440		0.2796		H		1		UNL1		0.1914
44		H		-2.9338		5.0038		-0.0654		H		1		UNL1		0.1386
45		H		-0.8520		6.3074		0.1140		H		1		UNL1		0.1593
46		H		-4.0061		3.0301		-0.0539		H		1		UNL1		0.3491
47		H		-7.5552		-2.8408		-0.4309		H		1		UNL1		0.1894
48		H		-7.4698		-0.2132		-0.3241		H		1		UNL1		0.1629
@<TRIPOS>BOND
1		41		11		1
2		40		10		1
3		11		10		ar
4		11		12		ar
5		10		9		ar
6		38		5		1
7		37		4		1
8		26		25		3
9		5		4		ar
10		5		6		ar
11		25		6		1
12		4		3		ar
13		6		1		ar
14		47		32		1
15		32		31		ar
16		32		33		ar
17		48		33		1
18		31		14		ar
19		33		15		ar
20		3		12		1
21		3		2		ar
22		15		14		ar
23		15		16		ar
24		14		13		ar
25		1		2		ar
26		1		35		1
27		12		7		ar
28		9		27		1
29		9		8		ar
30		16		17		ar
31		13		27		1
32		13		18		ar
33		17		18		ar
34		17		28		1
35		44		22		1
36		2		36		1
37		46		28		1
38		28		21		1
39		22		21		ar
40		22		23		ar
41		21		20		ar
42		45		23		1
43		23		24		ar
44		20		43		1
45		20		19		ar
46		24		19		ar
47		24		29		1
48		19		42		1
49		29		30		3
50		7		8		ar
51		7		34		1
52		8		39		1

