@<TRIPOS>MOLECULE
WHQ-2014-MCC-5468-3-1k
 49 51 0 0 0
SMALL
MULLIKEN_CHARGES
****
Gaussian 16 #p B3LYP/6-31G* opt
@<TRIPOS>ATOM
1		C		-3.0016		4.8757		0.7640		C.3		1		UNL1		-0.4473
2		C		-3.0444		3.6356		-0.1483		C.3		1		UNL1		-0.3427
3		C		-1.6878		3.0058		-0.3532		C.ar		1		UNL1		0.0522
4		C		-1.1700		1.9460		0.3469		C.ar		1		UNL1		0.2501
5		C		-1.9600		1.2393		1.4571		C.3		1		UNL1		-0.3351
6		C		-1.0654		0.8607		2.5660		C.1		1		UNL1		0.3798
7		N		-0.3878		0.5596		3.4587		N.1		1		UNL1		-0.4751
8		C		-2.7369		0.0213		0.9395		C.ar		1		UNL1		0.1785
9		C		-2.0720		-1.0582		0.3449		C.ar		1		UNL1		-0.1646
10		C		-2.7858		-2.1552		-0.1327		C.ar		1		UNL1		-0.1481
11		C		-4.1751		-2.1711		-0.0118		C.ar		1		UNL1		0.0859
12		BR		-5.1580		-3.6734		-0.6667		Br		1		UNL1		-0.1221
13		C		-4.8566		-1.1120		0.5811		C.ar		1		UNL1		-0.1477
14		C		-4.1292		-0.0196		1.0562		C.ar		1		UNL1		-0.1819
15		N		0.0716		1.3957		0.1244		N.ar		1		UNL1		-0.5213
16		C		0.8249		1.9419		-0.7853		C.ar		1		UNL1		0.3252
17		S		2.4604		1.3551		-1.1277		S.3		1		UNL1		0.1606
18		C		2.6254		-0.0043		0.1350		C.3		1		UNL1		-0.5023
19		C		4.0549		-0.4695		0.1722		C.ar		1		UNL1		0.1403
20		C		4.9921		0.1492		1.0168		C.ar		1		UNL1		-0.1648
21		C		6.3109		-0.2782		1.0577		C.ar		1		UNL1		-0.1710
22		C		6.7326		-1.3422		0.2445		C.ar		1		UNL1		0.3795
23		O		8.0454		-1.6879		0.3589		O.3		1		UNL1		-0.5031
24		C		8.5326		-2.7591		-0.4353		C.3		1		UNL1		-0.2179
25		C		5.8135		-1.9689		-0.6054		C.ar		1		UNL1		-0.1936
26		C		4.4894		-1.5256		-0.6329		C.ar		1		UNL1		-0.1755
27		N		0.4136		3.0124		-1.5229		N.ar		1		UNL1		-0.6510
28		C		-0.8499		3.6256		-1.3769		C.ar		1		UNL1		0.5879
29		O		-1.1423		4.5890		-2.0735		O.2		1		UNL1		-0.5198
30		H		-2.6437		4.6252		1.7697		H		1		UNL1		0.1432
31		H		-3.9995		5.3184		0.8584		H		1		UNL1		0.1503
32		H		-2.3329		5.6325		0.3433		H		1		UNL1		0.1758
33		H		-3.4179		3.9401		-1.1317		H		1		UNL1		0.1787
34		H		-3.7553		2.9007		0.2429		H		1		UNL1		0.1395
35		H		-2.6839		1.9460		1.8736		H		1		UNL1		0.1991
36		H		-0.9907		-1.0370		0.2551		H		1		UNL1		0.1703
37		H		-2.2697		-2.9910		-0.5922		H		1		UNL1		0.1593
38		H		-5.9367		-1.1388		0.6741		H		1		UNL1		0.1604
39		H		-4.6606		0.8033		1.5279		H		1		UNL1		0.1441
40		H		2.2869		0.4050		1.0883		H		1		UNL1		0.2270
41		H		1.9424		-0.8045		-0.1568		H		1		UNL1		0.1981
42		H		4.6785		0.9729		1.6534		H		1		UNL1		0.1423
43		H		7.0363		0.1917		1.7142		H		1		UNL1		0.1457
44		H		9.5902		-2.8588		-0.1853		H		1		UNL1		0.1740
45		H		8.0151		-3.6995		-0.2048		H		1		UNL1		0.1549
46		H		8.4319		-2.5443		-1.5073		H		1		UNL1		0.1545
47		H		6.1114		-2.7952		-1.2403		H		1		UNL1		0.1365
48		H		3.7830		-2.0213		-1.2951		H		1		UNL1		0.1337
49		H		1.0218		3.4384		-2.2155		H		1		UNL1		0.3575
@<TRIPOS>BOND
1		49		27		1
2		29		28		2
3		27		28		ar
4		27		16		ar
5		46		24		1
6		28		3		ar
7		48		26		1
8		47		25		1
9		33		2		1
10		17		16		1
11		17		18		1
12		16		15		ar
13		12		11		1
14		26		25		ar
15		26		19		ar
16		25		22		ar
17		37		10		1
18		24		45		1
19		24		44		1
20		24		23		1
21		3		2		1
22		3		4		ar
23		41		18		1
24		2		34		1
25		2		1		1
26		10		11		ar
27		10		9		ar
28		11		13		ar
29		15		4		ar
30		18		19		1
31		18		40		1
32		19		20		ar
33		22		23		1
34		22		21		ar
35		36		9		1
36		32		1		1
37		9		8		ar
38		4		5		1
39		13		38		1
40		13		14		ar
41		1		31		1
42		1		30		1
43		8		14		ar
44		8		5		1
45		20		21		ar
46		20		42		1
47		14		39		1
48		21		43		1
49		5		35		1
50		5		6		1
51		6		7		3

