@<TRIPOS>MOLECULE
WHQ-2015-BMC-624-3-3r
 44 46 0 0 0
SMALL
MULLIKEN_CHARGES
****
Gaussian 16 #p B3LYP/6-31G* opt
@<TRIPOS>ATOM
1		C		-0.8098		2.8918		0.0002		C.3		1		UNL1		-0.5314
2		C		0.3928		1.9903		-0.0001		C.ar		1		UNL1		0.0858
3		C		1.7008		2.4504		-0.0002		C.ar		1		UNL1		0.0165
4		N		2.7909		1.6647		-0.0004		N.ar		1		UNL1		-0.4865
5		C		2.5529		0.3534		-0.0005		C.ar		1		UNL1		0.7049
6		N		3.5905		-0.5539		-0.0009		N.pl3		1		UNL1		-0.7680
7		C		4.9776		-0.3926		-0.0005		C.ar		1		UNL1		0.3819
8		C		5.6319		0.8529		0.0002		C.ar		1		UNL1		-0.1592
9		C		7.0205		0.9021		0.0006		C.ar		1		UNL1		-0.1532
10		C		7.7908		-0.2722		0.0003		C.ar		1		UNL1		0.1318
11		C		9.2203		-0.2063		0.0008		C.1		1		UNL1		0.2280
12		N		10.3832		-0.1541		0.0012		N.1		1		UNL1		-0.4835
13		C		7.1343		-1.5157		-0.0005		C.ar		1		UNL1		-0.1402
14		C		5.7505		-1.5715		-0.0009		C.ar		1		UNL1		-0.2062
15		N		1.3328		-0.2330		-0.0004		N.ar		1		UNL1		-0.5861
16		C		0.2934		0.5806		-0.0002		C.ar		1		UNL1		0.5590
17		O		-0.9526		0.0526		-0.0001		O.3		1		UNL1		-0.5325
18		C		-1.0796		-1.3775		-0.0001		C.3		1		UNL1		-0.1073
19		C		-2.5510		-1.7919		0.0002		C.2		1		UNL1		0.5780
20		O		-2.8198		-2.9842		0.0007		O.2		1		UNL1		-0.4979
21		N		-3.4477		-0.7599		-0.0003		N.am		1		UNL1		-0.7253
22		C		-4.8562		-0.8168		-0.0001		C.ar		1		UNL1		0.3639
23		C		-5.5787		-2.0195		0.0001		C.ar		1		UNL1		-0.1548
24		C		-6.9721		-1.9724		0.0004		C.ar		1		UNL1		-0.1444
25		C		-7.6673		-0.7629		0.0003		C.ar		1		UNL1		-0.1269
26		C		-6.9290		0.4189		0.0001		C.ar		1		UNL1		-0.0705
27		CL		-7.7663		1.9667		0.0001		Cl		1		UNL1		-0.0231
28		C		-5.5389		0.4095		-0.0001		C.ar		1		UNL1		-0.1983
29		H		-0.5029		3.9422		0.0002		H		1		UNL1		0.1668
30		H		-1.4389		2.7260		0.8834		H		1		UNL1		0.1693
31		H		-1.4392		2.7261		-0.8829		H		1		UNL1		0.1692
32		H		1.8944		3.5224		-0.0001		H		1		UNL1		0.1515
33		H		3.2570		-1.5092		-0.0009		H		1		UNL1		0.3464
34		H		5.0457		1.7604		0.0004		H		1		UNL1		0.1901
35		H		7.5195		1.8661		0.0012		H		1		UNL1		0.1591
36		H		7.7153		-2.4321		-0.0008		H		1		UNL1		0.1593
37		H		5.2539		-2.5391		-0.0016		H		1		UNL1		0.1374
38		H		-0.5952		-1.8042		0.8830		H		1		UNL1		0.1971
39		H		-0.5955		-1.8042		-0.8834		H		1		UNL1		0.1971
40		H		-3.0350		0.1645		-0.0005		H		1		UNL1		0.3605
41		H		-5.0484		-2.9610		0.0002		H		1		UNL1		0.1923
42		H		-7.5298		-2.9046		0.0005		H		1		UNL1		0.1472
43		H		-8.7511		-0.7335		0.0005		H		1		UNL1		0.1554
44		H		-4.9919		1.3477		-0.0003		H		1		UNL1		0.1470
@<TRIPOS>BOND
1		39		18		1
2		31		1		1
3		37		14		1
4		6		33		1
5		6		7		1
6		6		5		1
7		14		7		ar
8		14		13		ar
9		36		13		1
10		40		21		1
11		7		8		ar
12		5		4		ar
13		5		15		ar
14		13		10		ar
15		4		3		ar
16		15		16		ar
17		21		22		1
18		21		19		1
19		44		28		1
20		16		17		1
21		16		2		ar
22		3		32		1
23		3		2		ar
24		17		18		1
25		18		19		1
26		18		38		1
27		2		1		1
28		28		22		ar
29		28		26		ar
30		22		23		ar
31		27		26		1
32		26		25		ar
33		23		41		1
34		23		24		ar
35		29		1		1
36		1		30		1
37		19		20		2
38		8		34		1
39		8		9		ar
40		10		9		ar
41		10		11		1
42		25		24		ar
43		25		43		1
44		24		42		1
45		9		35		1
46		11		12		3

