@<TRIPOS>MOLECULE
WHQ-2015-BMC-624-3-3l
 46 48 0 0 0
SMALL
MULLIKEN_CHARGES
****
Gaussian 16 #p B3LYP/6-31G* opt
@<TRIPOS>ATOM
1		C		-2.5551		3.9494		-0.0005		C.3		1		UNL1		-0.5148
2		C		-2.1727		2.4948		-0.0007		C.ar		1		UNL1		0.3454
3		C		-0.8471		2.0829		-0.0012		C.ar		1		UNL1		-0.2597
4		C		-0.6345		0.6953		-0.0013		C.ar		1		UNL1		0.6130
5		O		0.6476		0.2610		-0.0018		O.3		1		UNL1		-0.5404
6		C		0.8768		-1.1549		-0.0018		C.3		1		UNL1		-0.1066
7		C		2.3746		-1.4557		-0.0014		C.2		1		UNL1		0.5785
8		O		2.7418		-2.6198		-0.0016		O.2		1		UNL1		-0.4888
9		N		3.1907		-0.3525		-0.0008		N.am		1		UNL1		-0.7266
10		C		4.5920		-0.2976		-0.0003		C.ar		1		UNL1		0.3861
11		C		5.1848		0.9790		0.0001		C.ar		1		UNL1		-0.2070
12		C		6.5640		1.1183		0.0007		C.ar		1		UNL1		-0.1535
13		C		7.3564		-0.0296		0.0009		C.ar		1		UNL1		0.2831
14		N		8.8144		0.1098		0.0015		N.pl3		1		UNL1		0.3746
15		O		9.2805		1.2508		0.0019		O.2		1		UNL1		-0.4008
16		O		9.4895		-0.9203		0.0016		O.2		1		UNL1		-0.3981
17		C		6.7892		-1.3028		0.0005		C.ar		1		UNL1		-0.1677
18		C		5.4064		-1.4445		-0.0001		C.ar		1		UNL1		-0.1697
19		N		-1.6120		-0.1921		-0.0010		N.ar		1		UNL1		-0.5894
20		C		-2.8670		0.3211		-0.0006		C.ar		1		UNL1		0.7079
21		N		-3.8422		-0.6510		-0.0003		N.pl3		1		UNL1		-0.7707
22		C		-5.2381		-0.5840		0.0002		C.ar		1		UNL1		0.3811
23		C		-5.9761		0.6134		0.0007		C.ar		1		UNL1		-0.1584
24		C		-7.3649		0.5672		0.0012		C.ar		1		UNL1		-0.1533
25		C		-8.0525		-0.6573		0.0011		C.ar		1		UNL1		0.1326
26		C		-9.4832		-0.6894		0.0016		C.1		1		UNL1		0.2287
27		N		-10.6470		-0.7161		0.0020		N.1		1		UNL1		-0.4819
28		C		-7.3122		-1.8527		0.0005		C.ar		1		UNL1		-0.1400
29		C		-5.9278		-1.8131		0.0001		C.ar		1		UNL1		-0.2058
30		N		-3.1948		1.6121		-0.0004		N.ar		1		UNL1		-0.5405
31		H		-1.6774		4.6010		-0.0009		H		1		UNL1		0.1605
32		H		-3.1652		4.1771		0.8807		H		1		UNL1		0.1834
33		H		-3.1660		4.1772		-0.8812		H		1		UNL1		0.1834
34		H		-0.0179		2.7790		-0.0015		H		1		UNL1		0.1447
35		H		0.4275		-1.6180		-0.8853		H		1		UNL1		0.1997
36		H		0.4269		-1.6181		0.8813		H		1		UNL1		0.1997
37		H		2.7032		0.5354		-0.0008		H		1		UNL1		0.3613
38		H		4.5559		1.8660		0.0000		H		1		UNL1		0.1417
39		H		7.0343		2.0937		0.0010		H		1		UNL1		0.1855
40		H		7.4359		-2.1716		0.0006		H		1		UNL1		0.1883
41		H		4.9493		-2.4237		-0.0004		H		1		UNL1		0.2022
42		H		-3.4458		-1.5821		-0.0005		H		1		UNL1		0.3470
43		H		-5.4529		1.5583		0.0008		H		1		UNL1		0.1869
44		H		-7.9292		1.4944		0.0016		H		1		UNL1		0.1593
45		H		-7.8290		-2.8069		0.0005		H		1		UNL1		0.1606
46		H		-5.3659		-2.7444		-0.0004		H		1		UNL1		0.1385
@<TRIPOS>BOND
1		35		6		1
2		33		1		1
3		6		5		1
4		6		7		1
5		6		36		1
6		5		4		1
7		8		7		2
8		34		3		1
9		7		9		1
10		4		3		ar
11		4		19		ar
12		3		2		ar
13		19		20		ar
14		31		1		1
15		9		37		1
16		9		10		1
17		2		1		1
18		2		30		ar
19		20		30		ar
20		20		21		1
21		42		21		1
22		1		32		1
23		41		18		1
24		46		29		1
25		21		22		1
26		10		18		ar
27		10		11		ar
28		18		17		ar
29		38		11		1
30		29		22		ar
31		29		28		ar
32		11		12		ar
33		22		23		ar
34		45		28		1
35		17		40		1
36		17		13		ar
37		28		25		ar
38		23		43		1
39		23		24		ar
40		12		13		ar
41		12		39		1
42		13		14		1
43		25		24		ar
44		25		26		1
45		24		44		1
46		14		16		2
47		14		15		2
48		26		27		3

