@<TRIPOS>MOLECULE
WHQ-2014-SQER-761-15
 43 46 0 0 0
SMALL
MULLIKEN_CHARGES
****
Gaussian 16 #p B3LYP/6-31G* opt
@<TRIPOS>ATOM
1		C		-0.6364		4.9888		0.2235		C.3		1		UNL1		-0.5436
2		C		0.0238		3.6395		0.1494		C.ar		1		UNL1		0.1183
3		C		1.4019		3.4777		0.2264		C.ar		1		UNL1		0.0257
4		N		2.0404		2.3000		0.1659		N.ar		1		UNL1		-0.4820
5		C		1.2505		1.2334		0.0211		C.ar		1		UNL1		0.6847
6		N		1.7854		-0.0379		-0.0528		N.pl3		1		UNL1		-0.7619
7		C		3.0961		-0.5087		-0.0058		C.ar		1		UNL1		0.3834
8		C		3.2726		-1.9046		-0.1055		C.ar		1		UNL1		-0.2062
9		C		4.5370		-2.4675		-0.0705		C.ar		1		UNL1		-0.1408
10		C		5.6721		-1.6485		0.0662		C.ar		1		UNL1		0.1303
11		C		6.9817		-2.2232		0.1027		C.1		1		UNL1		0.2262
12		N		8.0468		-2.6926		0.1320		N.1		1		UNL1		-0.4866
13		C		5.4967		-0.2582		0.1659		C.ar		1		UNL1		-0.1536
14		C		4.2310		0.3130		0.1315		C.ar		1		UNL1		-0.1606
15		N		-0.0952		1.2451		-0.0668		N.ar		1		UNL1		-0.5107
16		C		-0.6903		2.4265		-0.0027		C.ar		1		UNL1		0.0672
17		S		-2.4734		2.5141		-0.1133		S.3		1		UNL1		0.1539
18		C		-2.9564		0.8018		-0.3257		C.ar		1		UNL1		-0.0848
19		C		-2.7386		0.1411		-1.5650		C.ar		1		UNL1		-0.1296
20		C		-3.1853		-1.1457		-1.7452		C.ar		1		UNL1		-0.1899
21		C		-3.8791		-1.8353		-0.7127		C.ar		1		UNL1		0.1364
22		C		-4.3582		-3.1622		-0.8729		C.ar		1		UNL1		-0.1921
23		C		-5.0272		-3.7977		0.1496		C.ar		1		UNL1		-0.1319
24		C		-5.2494		-3.1344		1.3812		C.ar		1		UNL1		-0.1356
25		C		-4.7990		-1.8468		1.5674		C.ar		1		UNL1		-0.1867
26		C		-4.1054		-1.1642		0.5324		C.ar		1		UNL1		0.1400
27		C		-3.6247		0.1629		0.6969		C.ar		1		UNL1		-0.2114
28		H		-1.3277		5.0567		1.0730		H		1		UNL1		0.1800
29		H		0.1132		5.7781		0.3382		H		1		UNL1		0.1625
30		H		-1.2178		5.2064		-0.6814		H		1		UNL1		0.1806
31		H		2.0399		4.3533		0.3443		H		1		UNL1		0.1475
32		H		1.0626		-0.7391		-0.1551		H		1		UNL1		0.3486
33		H		2.4022		-2.5482		-0.2110		H		1		UNL1		0.1362
34		H		4.6553		-3.5435		-0.1483		H		1		UNL1		0.1563
35		H		6.3673		0.3815		0.2719		H		1		UNL1		0.1568
36		H		4.1036		1.3831		0.2092		H		1		UNL1		0.1890
37		H		-2.2181		0.6625		-2.3613		H		1		UNL1		0.1495
38		H		-3.0182		-1.6523		-2.6928		H		1		UNL1		0.1376
39		H		-4.1881		-3.6699		-1.8193		H		1		UNL1		0.1350
40		H		-5.3886		-4.8135		0.0145		H		1		UNL1		0.1366
41		H		-5.7785		-3.6473		2.1797		H		1		UNL1		0.1367
42		H		-4.9681		-1.3341		2.5113		H		1		UNL1		0.1369
43		H		-3.7888		0.6712		1.6429		H		1		UNL1		0.1520
@<TRIPOS>BOND
1		38		20		1
2		37		19		1
3		39		22		1
4		20		19		ar
5		20		21		ar
6		19		18		ar
7		22		21		ar
8		22		23		ar
9		21		26		ar
10		30		1		1
11		18		17		1
12		18		27		ar
13		33		8		1
14		32		6		1
15		34		9		1
16		17		16		1
17		8		9		ar
18		8		7		ar
19		9		10		ar
20		15		16		ar
21		15		5		ar
22		6		7		1
23		6		5		1
24		7		14		ar
25		16		2		ar
26		40		23		1
27		5		4		ar
28		10		11		1
29		10		13		ar
30		11		12		3
31		14		13		ar
32		14		36		1
33		2		1		1
34		2		3		ar
35		23		24		ar
36		4		3		ar
37		13		35		1
38		1		29		1
39		1		28		1
40		3		31		1
41		26		27		ar
42		26		25		ar
43		27		43		1
44		24		25		ar
45		24		41		1
46		25		42		1

