@<TRIPOS>MOLECULE
WHQ-2014-SQER-761-22
 43 46 0 0 0
SMALL
MULLIKEN_CHARGES
****
Gaussian 16 #p B3LYP/6-31G* opt
@<TRIPOS>ATOM
1		C		4.2305		2.7345		-0.7613		C.3		1		UNL1		-0.5215
2		C		2.7537		2.8444		-0.5066		C.ar		1		UNL1		0.0855
3		C		2.1155		4.0157		-0.1063		C.ar		1		UNL1		0.0142
4		N		0.8053		4.1217		0.1394		N.ar		1		UNL1		-0.4949
5		C		0.0947		2.9940		-0.0211		C.ar		1		UNL1		0.6915
6		N		-1.2522		3.1399		0.2438		N.pl3		1		UNL1		-0.7686
7		C		-2.3229		2.2482		0.2126		C.ar		1		UNL1		0.3815
8		C		-2.2126		0.8823		-0.1102		C.ar		1		UNL1		-0.1630
9		C		-3.3454		0.0784		-0.1101		C.ar		1		UNL1		-0.1583
10		C		-4.6102		0.6010		0.2065		C.ar		1		UNL1		0.1304
11		C		-5.7682		-0.2391		0.1997		C.1		1		UNL1		0.2262
12		N		-6.7106		-0.9227		0.1926		N.1		1		UNL1		-0.4875
13		C		-4.7187		1.9655		0.5297		C.ar		1		UNL1		-0.1411
14		C		-3.5932		2.7720		0.5320		C.ar		1		UNL1		-0.2046
15		N		0.5776		1.8028		-0.4037		N.ar		1		UNL1		-0.5492
16		C		1.8797		1.7523		-0.6362		C.ar		1		UNL1		0.5360
17		O		2.4329		0.5759		-1.0429		O.3		1		UNL1		-0.5595
18		C		1.6485		-0.5705		-1.0726		C.ar		1		UNL1		0.3294
19		C		0.9948		-0.9055		-2.2783		C.ar		1		UNL1		-0.1501
20		C		0.2792		-2.0739		-2.3661		C.ar		1		UNL1		-0.2049
21		C		0.1863		-2.9578		-1.2584		C.ar		1		UNL1		0.1507
22		C		-0.5549		-4.1672		-1.3355		C.ar		1		UNL1		-0.1980
23		C		-0.6387		-5.0176		-0.2576		C.ar		1		UNL1		-0.1288
24		C		0.0212		-4.6923		0.9506		C.ar		1		UNL1		-0.1324
25		C		0.7497		-3.5294		1.0632		C.ar		1		UNL1		-0.1859
26		C		0.8551		-2.6289		-0.0299		C.ar		1		UNL1		0.0878
27		C		1.5884		-1.4070		0.0207		C.ar		1		UNL1		-0.0110
28		BR		2.5088		-0.8876		1.6074		Br		1		UNL1		-0.1036
29		H		4.4421		2.4538		-1.8000		H		1		UNL1		0.1710
30		H		4.6841		1.9653		-0.1257		H		1		UNL1		0.1794
31		H		4.7289		3.6876		-0.5581		H		1		UNL1		0.1562
32		H		2.6984		4.9264		0.0285		H		1		UNL1		0.1487
33		H		-1.4706		4.0909		0.5131		H		1		UNL1		0.3477
34		H		-1.2467		0.4668		-0.3554		H		1		UNL1		0.1964
35		H		-3.2492		-0.9740		-0.3581		H		1		UNL1		0.1586
36		H		-5.6883		2.3852		0.7773		H		1		UNL1		0.1566
37		H		-3.6900		3.8257		0.7832		H		1		UNL1		0.1366
38		H		1.0764		-0.2219		-3.1168		H		1		UNL1		0.1515
39		H		-0.2272		-2.3363		-3.2908		H		1		UNL1		0.1463
40		H		-1.0577		-4.4071		-2.2691		H		1		UNL1		0.1400
41		H		-1.2111		-5.9379		-0.3305		H		1		UNL1		0.1410
42		H		-0.0489		-5.3663		1.7997		H		1		UNL1		0.1411
43		H		1.2512		-3.2841		1.9924		H		1		UNL1		0.1584
@<TRIPOS>BOND
1		39		20		1
2		38		19		1
3		20		19		ar
4		20		21		ar
5		19		18		ar
6		40		22		1
7		29		1		1
8		22		21		ar
9		22		23		ar
10		21		26		ar
11		18		17		1
12		18		27		ar
13		17		16		1
14		1		31		1
15		1		2		1
16		1		30		1
17		16		2		ar
18		16		15		ar
19		2		3		ar
20		15		5		ar
21		35		9		1
22		34		8		1
23		41		23		1
24		23		24		ar
25		8		9		ar
26		8		7		ar
27		9		10		ar
28		3		32		1
29		3		4		ar
30		26		27		ar
31		26		25		ar
32		5		4		ar
33		5		6		1
34		27		28		1
35		12		11		3
36		11		10		1
37		10		13		ar
38		7		6		1
39		7		14		ar
40		6		33		1
41		13		14		ar
42		13		36		1
43		14		37		1
44		24		25		ar
45		24		42		1
46		25		43		1

