@<TRIPOS>MOLECULE
WHQ-2014-SQER-761-27
 43 46 0 0 0
SMALL
MULLIKEN_CHARGES
****
Gaussian 16 #p B3LYP/6-31G* opt
@<TRIPOS>ATOM
1		C		-1.8480		3.0460		-0.2469		C.3		1		UNL1		-0.5143
2		C		-1.8876		1.5476		-0.1114		C.ar		1		UNL1		0.3421
3		C		-0.7222		0.7907		-0.0291		C.ar		1		UNL1		-0.2611
4		C		-0.8954		-0.5974		0.0926		C.ar		1		UNL1		0.5408
5		O		0.1362		-1.4822		0.1661		O.3		1		UNL1		-0.5363
6		C		1.4405		-1.0216		0.3159		C.ar		1		UNL1		0.3239
7		C		1.8647		-0.5376		1.5771		C.ar		1		UNL1		-0.1526
8		C		3.1756		-0.1608		1.7515		C.ar		1		UNL1		-0.2000
9		C		4.1128		-0.2563		0.6864		C.ar		1		UNL1		0.1444
10		C		5.4711		0.1258		0.8469		C.ar		1		UNL1		-0.2198
11		C		6.3426		0.0125		-0.2092		C.ar		1		UNL1		0.0792
12		BR		8.1706		0.5281		0.0064		Br		1		UNL1		-0.1220
13		C		5.9230		-0.4807		-1.4667		C.ar		1		UNL1		-0.1512
14		C		4.6113		-0.8570		-1.6415		C.ar		1		UNL1		-0.1896
15		C		3.6710		-0.7577		-0.5812		C.ar		1		UNL1		0.1355
16		C		2.3117		-1.1354		-0.7400		C.ar		1		UNL1		-0.2349
17		N		-2.0846		-1.1744		0.1243		N.ar		1		UNL1		-0.5473
18		C		-3.1428		-0.3445		0.0346		C.ar		1		UNL1		0.6983
19		N		-4.3503		-1.0119		0.0718		N.pl3		1		UNL1		-0.7707
20		C		-5.6724		-0.5721		0.0131		C.ar		1		UNL1		0.3827
21		C		-6.6725		-1.5641		0.0813		C.ar		1		UNL1		-0.2058
22		C		-8.0149		-1.2280		0.0315		C.ar		1		UNL1		-0.1407
23		C		-8.4023		0.1186		-0.0888		C.ar		1		UNL1		0.1309
24		C		-9.7871		0.4742		-0.1409		C.1		1		UNL1		0.2267
25		N		-10.9143		0.7628		-0.1832		N.1		1		UNL1		-0.4858
26		C		-7.4065		1.1069		-0.1569		C.ar		1		UNL1		-0.1538
27		C		-6.0581		0.7762		-0.1075		C.ar		1		UNL1		-0.1596
28		N		-3.1108		0.9867		-0.0777		N.ar		1		UNL1		-0.5400
29		H		-2.3821		3.5131		0.5882		H		1		UNL1		0.1804
30		H		-2.3587		3.3539		-1.1662		H		1		UNL1		0.1811
31		H		-0.8233		3.4261		-0.2677		H		1		UNL1		0.1594
32		H		0.2570		1.2483		-0.0663		H		1		UNL1		0.1571
33		H		1.1486		-0.4823		2.3909		H		1		UNL1		0.1541
34		H		3.5124		0.2089		2.7163		H		1		UNL1		0.1476
35		H		5.8120		0.5051		1.8047		H		1		UNL1		0.1572
36		H		6.6381		-0.5576		-2.2781		H		1		UNL1		0.1594
37		H		4.2816		-1.2378		-2.6046		H		1		UNL1		0.1471
38		H		1.9574		-1.5239		-1.6901		H		1		UNL1		0.1517
39		H		-4.2180		-2.0116		0.1588		H		1		UNL1		0.3490
40		H		-6.3852		-2.6089		0.1745		H		1		UNL1		0.1375
41		H		-8.7718		-2.0037		0.0852		H		1		UNL1		0.1575
42		H		-7.6967		2.1488		-0.2499		H		1		UNL1		0.1564
43		H		-5.2969		1.5408		-0.1603		H		1		UNL1		0.1855
@<TRIPOS>BOND
1		37		14		1
2		36		13		1
3		38		16		1
4		14		13		ar
5		14		15		ar
6		13		11		ar
7		30		1		1
8		16		15		ar
9		16		6		ar
10		15		9		ar
11		31		1		1
12		42		26		1
13		1		2		1
14		1		29		1
15		11		12		1
16		11		10		ar
17		25		24		3
18		43		27		1
19		26		27		ar
20		26		23		ar
21		24		23		1
22		2		28		ar
23		2		3		ar
24		27		20		ar
25		23		22		ar
26		28		18		ar
27		32		3		1
28		3		4		ar
29		20		19		1
30		20		21		ar
31		22		21		ar
32		22		41		1
33		18		19		1
34		18		17		ar
35		19		39		1
36		21		40		1
37		4		17		ar
38		4		5		1
39		5		6		1
40		6		7		ar
41		9		10		ar
42		9		8		ar
43		10		35		1
44		7		8		ar
45		7		33		1
46		8		34		1

