@<TRIPOS>MOLECULE
WHQ-2014-SQER-761-76
 44 47 0 0 0
SMALL
MULLIKEN_CHARGES
****
Gaussian 16 #p B3LYP/6-31G* opt
@<TRIPOS>ATOM
1		C		-1.2829		2.2284		2.2836		C.3		1		UNL1		-0.5144
2		C		-1.3094		1.3650		1.0514		C.ar		1		UNL1		0.3414
3		C		-0.1418		1.0196		0.3759		C.ar		1		UNL1		-0.2507
4		C		-0.3070		0.2098		-0.7561		C.ar		1		UNL1		0.5526
5		O		0.7303		-0.2090		-1.5442		O.3		1		UNL1		-0.5314
6		C		2.0299		0.1333		-1.2299		C.ar		1		UNL1		0.2990
7		C		2.6166		1.1981		-1.9526		C.ar		1		UNL1		-0.1538
8		C		3.9334		1.5259		-1.7496		C.ar		1		UNL1		-0.1950
9		C		4.7235		0.8050		-0.8150		C.ar		1		UNL1		0.1515
10		C		6.0827		1.1366		-0.5972		C.ar		1		UNL1		-0.2189
11		C		6.8492		0.4296		0.3129		C.ar		1		UNL1		0.1404
12		C		8.2237		0.7784		0.5242		C.1		1		UNL1		0.2383
13		N		9.3392		1.0569		0.7011		N.1		1		UNL1		-0.4710
14		C		6.2707		-0.6469		1.0428		C.ar		1		UNL1		-0.1399
15		C		4.9550		-0.9877		0.8491		C.ar		1		UNL1		-0.1920
16		C		4.1408		-0.2814		-0.0777		C.ar		1		UNL1		0.1027
17		C		2.7712		-0.5940		-0.3184		C.ar		1		UNL1		-0.0161
18		BR		1.9233		-2.0228		0.6074		Br		1		UNL1		-0.0781
19		N		-1.4817		-0.2134		-1.1804		N.ar		1		UNL1		-0.5471
20		C		-2.5447		0.1799		-0.4492		C.ar		1		UNL1		0.7012
21		N		-3.7403		-0.2974		-0.9431		N.pl3		1		UNL1		-0.7715
22		C		-5.0617		-0.1470		-0.5209		C.ar		1		UNL1		0.3823
23		C		-6.0484		-0.7971		-1.2902		C.ar		1		UNL1		-0.2056
24		C		-7.3886		-0.7077		-0.9532		C.ar		1		UNL1		-0.1405
25		C		-7.7864		0.0390		0.1700		C.ar		1		UNL1		0.1314
26		C		-9.1691		0.1368		0.5247		C.1		1		UNL1		0.2272
27		N		-10.2943		0.2160		0.8126		N.1		1		UNL1		-0.4847
28		C		-6.8036		0.6865		0.9366		C.ar		1		UNL1		-0.1536
29		C		-5.4575		0.6006		0.6037		C.ar		1		UNL1		-0.1593
30		N		-2.5222		0.9476		0.6443		N.ar		1		UNL1		-0.5388
31		H		-0.2663		2.5336		2.5453		H		1		UNL1		0.1595
32		H		-1.8935		3.1247		2.1279		H		1		UNL1		0.1814
33		H		-1.7182		1.6865		3.1307		H		1		UNL1		0.1830
34		H		0.8299		1.3565		0.7108		H		1		UNL1		0.1539
35		H		1.9992		1.7301		-2.6688		H		1		UNL1		0.1653
36		H		4.3876		2.3417		-2.3046		H		1		UNL1		0.1568
37		H		6.5223		1.9575		-1.1555		H		1		UNL1		0.1668
38		H		6.8814		-1.1938		1.7533		H		1		UNL1		0.1667
39		H		4.5200		-1.8078		1.4081		H		1		UNL1		0.1716
40		H		-3.6002		-0.8647		-1.7697		H		1		UNL1		0.3500
41		H		-5.7529		-1.3776		-2.1611		H		1		UNL1		0.1383
42		H		-8.1356		-1.2141		-1.5558		H		1		UNL1		0.1584
43		H		-7.1020		1.2649		1.8054		H		1		UNL1		0.1572
44		H		-4.7064		1.1007		1.1975		H		1		UNL1		0.1857
@<TRIPOS>BOND
1		35		7		1
2		36		8		1
3		41		23		1
4		7		8		ar
5		7		6		ar
6		40		21		1
7		8		9		ar
8		42		24		1
9		5		6		1
10		5		4		1
11		23		24		ar
12		23		22		ar
13		6		17		ar
14		19		4		ar
15		19		20		ar
16		37		10		1
17		24		25		ar
18		21		22		1
19		21		20		1
20		9		10		ar
21		9		16		ar
22		4		3		ar
23		10		11		ar
24		22		29		ar
25		20		30		ar
26		17		16		ar
27		17		18		1
28		16		15		ar
29		25		26		1
30		25		28		ar
31		11		12		1
32		11		14		ar
33		3		34		1
34		3		2		ar
35		12		13		3
36		26		27		3
37		29		28		ar
38		29		44		1
39		30		2		ar
40		15		14		ar
41		15		39		1
42		28		43		1
43		14		38		1
44		2		1		1
45		32		1		1
46		1		31		1
47		1		33		1

