@<TRIPOS>MOLECULE
WHQ-2014-SQER-761-7
 40 43 0 0 0
SMALL
MULLIKEN_CHARGES
****
Gaussian 16 #p B3LYP/6-31G* opt
@<TRIPOS>ATOM
1		N		8.4864		-2.0768		0.4685		N.1		1		UNL1		-0.4843
2		C		7.3895		-1.7039		0.3543		C.1		1		UNL1		0.2277
3		C		6.0407		-1.2469		0.2138		C.ar		1		UNL1		0.1316
4		C		5.7535		0.1264		0.1501		C.ar		1		UNL1		-0.1534
5		C		4.4488		0.5841		0.0138		C.ar		1		UNL1		-0.1591
6		C		3.3895		-0.3389		-0.0624		C.ar		1		UNL1		0.3818
7		N		2.0455		0.0130		-0.2005		N.pl3		1		UNL1		-0.7679
8		C		1.4094		1.2319		-0.2872		C.ar		1		UNL1		0.7007
9		N		2.1099		2.3693		-0.2447		N.ar		1		UNL1		-0.4875
10		C		1.3825		3.4954		-0.3350		C.ar		1		UNL1		0.0697
11		C		0.0053		3.5141		-0.4636		C.ar		1		UNL1		-0.2167
12		C		-0.6060		2.2490		-0.4972		C.ar		1		UNL1		0.5695
13		O		-1.9581		2.2238		-0.6184		O.3		1		UNL1		-0.5683
14		C		-2.6227		0.9961		-0.6959		C.ar		1		UNL1		0.2922
15		C		-2.7662		0.3813		-1.9132		C.ar		1		UNL1		-0.1499
16		C		-3.5063		-0.8171		-2.0102		C.ar		1		UNL1		-0.1587
17		C		-4.0836		-1.3617		-0.8869		C.ar		1		UNL1		-0.1303
18		CL		-4.9930		-2.8596		-1.0619		Cl		1		UNL1		-0.0100
19		C		-3.9672		-0.7468		0.3945		C.ar		1		UNL1		0.1234
20		C		-4.5536		-1.2698		1.5775		C.ar		1		UNL1		-0.1977
21		C		-4.4067		-0.6230		2.7837		C.ar		1		UNL1		-0.1292
22		C		-3.6693		0.5809		2.8691		C.ar		1		UNL1		-0.1310
23		C		-3.0863		1.1174		1.7445		C.ar		1		UNL1		-0.1869
24		C		-3.2127		0.4729		0.4859		C.ar		1		UNL1		0.1232
25		N		0.0673		1.1176		-0.4123		N.ar		1		UNL1		-0.5566
26		C		3.6775		-1.7174		0.0015		C.ar		1		UNL1		-0.2058
27		C		4.9803		-2.1672		0.1373		C.ar		1		UNL1		-0.1405
28		H		6.5664		0.8434		0.2084		H		1		UNL1		0.1584
29		H		4.2347		1.6419		-0.0343		H		1		UNL1		0.1901
30		H		1.3880		-0.7555		-0.2422		H		1		UNL1		0.3503
31		H		1.9467		4.4252		-0.3018		H		1		UNL1		0.1579
32		H		-0.5724		4.4265		-0.5375		H		1		UNL1		0.1593
33		H		-2.3110		0.8172		-2.7961		H		1		UNL1		0.1506
34		H		-3.6200		-1.3076		-2.9705		H		1		UNL1		0.1613
35		H		-5.1234		-2.1899		1.5165		H		1		UNL1		0.1613
36		H		-4.8635		-1.0390		3.6772		H		1		UNL1		0.1408
37		H		-3.5657		1.0836		3.8265		H		1		UNL1		0.1399
38		H		-2.5283		2.0455		1.8011		H		1		UNL1		0.1467
39		H		2.8654		-2.4384		-0.0563		H		1		UNL1		0.1386
40		H		5.1857		-3.2317		0.1852		H		1		UNL1		0.1586
@<TRIPOS>BOND
1		34		16		1
2		33		15		1
3		16		15		ar
4		16		17		ar
5		15		14		ar
6		18		17		1
7		17		19		ar
8		14		13		1
9		14		24		ar
10		13		12		1
11		32		11		1
12		12		11		ar
13		12		25		ar
14		11		10		ar
15		25		8		ar
16		10		31		1
17		10		9		ar
18		8		9		ar
19		8		7		1
20		30		7		1
21		7		6		1
22		6		26		ar
23		6		5		ar
24		39		26		1
25		29		5		1
26		26		27		ar
27		5		4		ar
28		27		40		1
29		27		3		ar
30		4		28		1
31		4		3		ar
32		3		2		1
33		2		1		3
34		19		24		ar
35		19		20		ar
36		24		23		ar
37		35		20		1
38		20		21		ar
39		23		38		1
40		23		22		ar
41		21		22		ar
42		21		36		1
43		22		37		1

