@<TRIPOS>MOLECULE
WHQ-2013-BMC-6477-3-7f
 44 46 0 0 0
SMALL
MULLIKEN_CHARGES
****
Gaussian 16 #p B3LYP/6-31G* opt
@<TRIPOS>ATOM
1		C		-8.2434		-1.4271		-1.0834		C.3		1		UNL1		-0.2193
2		O		-7.4103		-1.4952		0.0650		O.3		1		UNL1		-0.5026
3		C		-6.2332		-0.8117		0.0528		C.ar		1		UNL1		0.3814
4		C		-5.7770		-0.0264		-1.0132		C.ar		1		UNL1		-0.1944
5		C		-4.5504		0.6318		-0.9077		C.ar		1		UNL1		-0.1697
6		C		-3.7648		0.5300		0.2431		C.ar		1		UNL1		0.1419
7		C		-2.4393		1.2397		0.3406		C.3		1		UNL1		-0.5473
8		S		-1.1035		0.1019		-0.2723		S.3		1		UNL1		0.2219
9		C		0.3846		1.0507		-0.0742		C.ar		1		UNL1		0.3235
10		N		1.4935		0.4601		-0.4107		N.ar		1		UNL1		-0.5156
11		C		2.6643		1.1775		-0.2968		C.ar		1		UNL1		0.1461
12		C		3.8916		0.4489		-0.8077		C.2		1		UNL1		0.3623
13		O		4.6962		1.0575		-1.5001		O.2		1		UNL1		-0.4578
14		C		4.1151		-0.9931		-0.4690		C.ar		1		UNL1		0.0805
15		C		5.1461		-1.6624		-1.1492		C.ar		1		UNL1		-0.1546
16		C		5.4427		-2.9885		-0.8491		C.ar		1		UNL1		-0.1355
17		C		4.7283		-3.6653		0.1428		C.ar		1		UNL1		-0.1858
18		C		3.7187		-2.9846		0.8134		C.ar		1		UNL1		0.3780
19		F		3.0275		-3.6295		1.7776		F		1		UNL1		-0.2976
20		C		3.3930		-1.6662		0.5276		C.ar		1		UNL1		-0.2245
21		C		2.7488		2.4691		0.1724		C.ar		1		UNL1		0.0580
22		C		3.9984		3.2913		0.3166		C.3		1		UNL1		-0.5032
23		C		1.5101		3.1279		0.5748		C.ar		1		UNL1		0.5782
24		O		1.3902		4.2620		1.0194		O.2		1		UNL1		-0.5156
25		N		0.3558		2.3262		0.4032		N.ar		1		UNL1		-0.6504
26		C		-4.2348		-0.2654		1.3009		C.ar		1		UNL1		-0.1634
27		C		-5.4512		-0.9261		1.2132		C.ar		1		UNL1		-0.1710
28		H		-7.7373		-1.8264		-1.9719		H		1		UNL1		0.1570
29		H		-8.5695		-0.3982		-1.2838		H		1		UNL1		0.1553
30		H		-9.1145		-2.0438		-0.8564		H		1		UNL1		0.1756
31		H		-6.3614		0.0807		-1.9196		H		1		UNL1		0.1397
32		H		-4.2052		1.2374		-1.7426		H		1		UNL1		0.1376
33		H		-2.4422		2.1446		-0.2755		H		1		UNL1		0.1909
34		H		-2.2224		1.5094		1.3794		H		1		UNL1		0.1914
35		H		5.7015		-1.1205		-1.9064		H		1		UNL1		0.1648
36		H		6.2361		-3.5029		-1.3837		H		1		UNL1		0.1450
37		H		4.9402		-4.6981		0.4000		H		1		UNL1		0.1521
38		H		2.5847		-1.1914		1.0678		H		1		UNL1		0.1642
39		H		3.9303		3.9004		1.2227		H		1		UNL1		0.1730
40		H		4.8989		2.6779		0.3437		H		1		UNL1		0.1679
41		H		4.1004		3.9848		-0.5274		H		1		UNL1		0.1798
42		H		-0.5092		2.7839		0.6662		H		1		UNL1		0.3557
43		H		-3.6389		-0.3654		2.2051		H		1		UNL1		0.1388
44		H		-5.8214		-1.5373		2.0300		H		1		UNL1		0.1476
@<TRIPOS>BOND
1		28		1		1
2		31		4		1
3		35		15		1
4		32		5		1
5		13		12		2
6		36		16		1
7		29		1		1
8		15		16		ar
9		15		14		ar
10		1		30		1
11		1		2		1
12		4		5		ar
13		4		3		ar
14		5		6		ar
15		16		17		ar
16		12		14		1
17		12		11		1
18		41		22		1
19		14		20		ar
20		10		11		ar
21		10		9		ar
22		11		21		ar
23		33		7		1
24		8		9		1
25		8		7		1
26		9		25		ar
27		3		2		1
28		3		27		ar
29		17		37		1
30		17		18		ar
31		21		22		1
32		21		23		ar
33		6		7		1
34		6		26		ar
35		22		40		1
36		22		39		1
37		7		34		1
38		25		23		ar
39		25		42		1
40		20		18		ar
41		20		38		1
42		23		24		2
43		18		19		1
44		27		26		ar
45		27		44		1
46		26		43		1

