@<TRIPOS>MOLECULE
WHQ-2014-SQER-761-50
 41 44 0 0 0
SMALL
MULLIKEN_CHARGES
****
Gaussian 16 #p B3LYP/6-31G* opt
@<TRIPOS>ATOM
1		N		-10.0798		0.7213		0.2992		N.1		1		UNL1		-0.4837
2		C		-8.9458		0.4732		0.2112		C.1		1		UNL1		0.2279
3		C		-7.5523		0.1670		0.1025		C.ar		1		UNL1		0.1318
4		C		-6.5811		1.1289		0.4251		C.ar		1		UNL1		-0.1532
5		C		-5.2247		0.8453		0.3240		C.ar		1		UNL1		-0.1591
6		C		-4.8076		-0.4269		-0.1088		C.ar		1		UNL1		0.3817
7		N		-3.4735		-0.8161		-0.2461		N.pl3		1		UNL1		-0.7656
8		C		-2.2849		-0.1562		-0.0257		C.ar		1		UNL1		0.6997
9		N		-2.2844		1.1129		0.4058		N.ar		1		UNL1		-0.4822
10		C		-1.0716		1.6485		0.5911		C.ar		1		UNL1		0.0694
11		C		0.1190		0.9744		0.3596		C.ar		1		UNL1		-0.2218
12		C		-0.0248		-0.3463		-0.0977		C.ar		1		UNL1		0.5330
13		O		1.0245		-1.1754		-0.3566		O.3		1		UNL1		-0.5300
14		C		2.3168		-0.6713		-0.4155		C.ar		1		UNL1		0.3292
15		C		2.6943		0.1632		-1.4967		C.ar		1		UNL1		-0.1540
16		C		3.9970		0.5892		-1.5975		C.ar		1		UNL1		-0.1960
17		C		4.9716		0.1983		-0.6378		C.ar		1		UNL1		0.1433
18		C		6.3187		0.6241		-0.7245		C.ar		1		UNL1		-0.2137
19		C		7.2476		0.2243		0.2228		C.ar		1		UNL1		0.1327
20		C		8.6089		0.6633		0.1256		C.1		1		UNL1		0.2374
21		N		9.7150		1.0165		0.0530		N.1		1		UNL1		-0.4741
22		C		6.8553		-0.6248		1.2984		C.ar		1		UNL1		-0.1416
23		C		5.5538		-1.0498		1.3995		C.ar		1		UNL1		-0.1931
24		C		4.5771		-0.6559		0.4442		C.ar		1		UNL1		0.1400
25		C		3.2254		-1.0779		0.5321		C.ar		1		UNL1		-0.2377
26		N		-1.2024		-0.9149		-0.2901		N.ar		1		UNL1		-0.5415
27		C		-5.7823		-1.3925		-0.4325		C.ar		1		UNL1		-0.2055
28		C		-7.1328		-1.1036		-0.3297		C.ar		1		UNL1		-0.1403
29		H		-6.8964		2.1122		0.7596		H		1		UNL1		0.1588
30		H		-4.4834		1.5903		0.5739		H		1		UNL1		0.1895
31		H		-3.3189		-1.7633		-0.5681		H		1		UNL1		0.3504
32		H		-1.0575		2.6763		0.9489		H		1		UNL1		0.1596
33		H		1.0823		1.4348		0.5317		H		1		UNL1		0.1631
34		H		1.9506		0.4437		-2.2356		H		1		UNL1		0.1595
35		H		4.2993		1.2266		-2.4241		H		1		UNL1		0.1535
36		H		6.6232		1.2700		-1.5426		H		1		UNL1		0.1639
37		H		7.5971		-0.9277		2.0299		H		1		UNL1		0.1636
38		H		5.2551		-1.6977		2.2190		H		1		UNL1		0.1510
39		H		2.9043		-1.7290		1.3393		H		1		UNL1		0.1567
40		H		-5.4698		-2.3787		-0.7679		H		1		UNL1		0.1386
41		H		-7.8709		-1.8579		-0.5826		H		1		UNL1		0.1590
@<TRIPOS>BOND
1		35		16		1
2		34		15		1
3		16		15		ar
4		16		17		ar
5		36		18		1
6		15		14		ar
7		40		27		1
8		18		17		ar
9		18		19		ar
10		17		24		ar
11		41		28		1
12		31		7		1
13		27		28		ar
14		27		6		ar
15		14		13		1
16		14		25		ar
17		13		12		1
18		28		3		ar
19		26		12		ar
20		26		8		ar
21		7		6		1
22		7		8		1
23		6		5		ar
24		12		11		ar
25		8		9		ar
26		21		20		3
27		3		2		1
28		3		4		ar
29		20		19		1
30		2		1		3
31		19		22		ar
32		5		4		ar
33		5		30		1
34		11		33		1
35		11		10		ar
36		9		10		ar
37		4		29		1
38		24		25		ar
39		24		23		ar
40		25		39		1
41		10		32		1
42		22		23		ar
43		22		37		1
44		23		38		1

