@<TRIPOS>MOLECULE
WHQ-2014-SQER-761-9
 43 46 0 0 0
SMALL
MULLIKEN_CHARGES
****
Gaussian 16 #p B3LYP/6-31G* opt
@<TRIPOS>ATOM
1		C		-0.0980		4.8759		0.6411		C.3		1		UNL1		-0.5197
2		C		-0.7733		3.5400		0.5064		C.ar		1		UNL1		0.0844
3		C		-2.1475		3.3721		0.4195		C.ar		1		UNL1		0.0140
4		N		-2.7698		2.1870		0.3012		N.ar		1		UNL1		-0.4863
5		C		-1.9682		1.1216		0.2698		C.ar		1		UNL1		0.6985
6		N		-2.4869		-0.1513		0.1484		N.pl3		1		UNL1		-0.7701
7		C		-3.7943		-0.6244		0.0376		C.ar		1		UNL1		0.3826
8		C		-4.9380		0.1959		0.0363		C.ar		1		UNL1		-0.1601
9		C		-6.1981		-0.3777		-0.0787		C.ar		1		UNL1		-0.1536
10		C		-6.3580		-1.7684		-0.1946		C.ar		1		UNL1		0.1308
11		C		-7.6620		-2.3452		-0.3124		C.1		1		UNL1		0.2269
12		N		-8.7226		-2.8158		-0.4083		N.1		1		UNL1		-0.4856
13		C		-5.2136		-2.5859		-0.1931		C.ar		1		UNL1		-0.1407
14		C		-3.9548		-2.0205		-0.0788		C.ar		1		UNL1		-0.2063
15		N		-0.6190		1.1376		0.3472		N.ar		1		UNL1		-0.5591
16		C		-0.0566		2.3239		0.4614		C.ar		1		UNL1		0.5233
17		O		1.2989		2.4204		0.5379		O.3		1		UNL1		-0.5695
18		C		2.0750		1.2582		0.5558		C.ar		1		UNL1		0.2995
19		C		2.3244		0.6335		1.7509		C.ar		1		UNL1		-0.1537
20		C		3.1738		-0.4938		1.7882		C.ar		1		UNL1		-0.1798
21		C		3.7507		-0.9585		0.6302		C.ar		1		UNL1		0.0353
22		BR		4.8898		-2.4941		0.7513		Br		1		UNL1		-0.1221
23		C		3.5261		-0.3316		-0.6297		C.ar		1		UNL1		0.0885
24		C		4.1061		-0.7718		-1.8489		C.ar		1		UNL1		-0.1912
25		C		3.8499		-0.1168		-3.0319		C.ar		1		UNL1		-0.1293
26		C		3.0024		1.0152		-3.0578		C.ar		1		UNL1		-0.1307
27		C		2.4217		1.4714		-1.8972		C.ar		1		UNL1		-0.1875
28		C		2.6601		0.8156		-0.6611		C.ar		1		UNL1		0.1216
29		H		-0.8396		5.6805		0.6677		H		1		UNL1		0.1589
30		H		0.5010		4.9327		1.5575		H		1		UNL1		0.1735
31		H		0.5847		5.0694		-0.1949		H		1		UNL1		0.1716
32		H		-2.7992		4.2446		0.4470		H		1		UNL1		0.1489
33		H		-1.7579		-0.8531		0.1348		H		1		UNL1		0.3491
34		H		-4.8222		1.2664		0.1249		H		1		UNL1		0.1895
35		H		-7.0761		0.2606		-0.0791		H		1		UNL1		0.1574
36		H		-5.3201		-3.6622		-0.2819		H		1		UNL1		0.1576
37		H		-3.0771		-2.6628		-0.0790		H		1		UNL1		0.1375
38		H		1.8682		1.0065		2.6617		H		1		UNL1		0.1498
39		H		3.3701		-0.9905		2.7316		H		1		UNL1		0.1608
40		H		4.7591		-1.6370		-1.8303		H		1		UNL1		0.1601
41		H		4.3045		-0.4705		-3.9529		H		1		UNL1		0.1406
42		H		2.8118		1.5259		-3.9974		H		1		UNL1		0.1395
43		H		1.7782		2.3441		-1.9083		H		1		UNL1		0.1448
@<TRIPOS>BOND
1		42		26		1
2		41		25		1
3		26		25		ar
4		26		27		ar
5		25		24		ar
6		43		27		1
7		27		28		ar
8		24		40		1
9		24		23		ar
10		28		23		ar
11		28		18		ar
12		23		21		ar
13		12		11		3
14		11		10		1
15		36		13		1
16		31		1		1
17		10		13		ar
18		10		9		ar
19		13		14		ar
20		35		9		1
21		37		14		1
22		14		7		ar
23		9		8		ar
24		8		7		ar
25		8		34		1
26		7		6		1
27		33		6		1
28		6		5		1
29		5		4		ar
30		5		15		ar
31		4		3		ar
32		15		16		ar
33		3		32		1
34		3		2		ar
35		16		2		ar
36		16		17		1
37		2		1		1
38		17		18		1
39		18		19		ar
40		21		22		1
41		21		20		ar
42		1		29		1
43		1		30		1
44		19		20		ar
45		19		38		1
46		20		39		1

