@<TRIPOS>MOLECULE
WHQ-2014-MCC-5468-3-1i
 49 51 0 0 0
SMALL
MULLIKEN_CHARGES
****
Gaussian 16 #p B3LYP/6-31G* opt
@<TRIPOS>ATOM
1		C		-2.1807		-3.3767		1.9242		C.3		1		UNL1		-0.4551
2		C		-2.1589		-1.8431		1.7775		C.3		1		UNL1		-0.3322
3		C		-1.3241		-1.3656		0.6147		C.ar		1		UNL1		0.0699
4		C		-1.7896		-0.8479		-0.5697		C.ar		1		UNL1		0.2227
5		C		-3.2794		-0.6384		-0.9004		C.3		1		UNL1		-0.3003
6		C		-4.0600		-1.8757		-0.7690		C.1		1		UNL1		0.3798
7		N		-4.6816		-2.8531		-0.6907		N.1		1		UNL1		-0.4995
8		C		-3.8997		0.5519		-0.1523		C.ar		1		UNL1		0.1515
9		C		-5.0516		0.4348		0.6308		C.ar		1		UNL1		-0.1859
10		C		-5.5821		1.5587		1.2710		C.ar		1		UNL1		-0.1377
11		C		-4.9773		2.8066		1.1390		C.ar		1		UNL1		-0.1903
12		C		-3.8349		2.9002		0.3503		C.ar		1		UNL1		0.3828
13		F		-3.2389		4.1021		0.2054		F		1		UNL1		-0.2963
14		C		-3.2860		1.8031		-0.2974		C.ar		1		UNL1		-0.2414
15		N		-0.9856		-0.4249		-1.6045		N.ar		1		UNL1		-0.5259
16		C		0.3047		-0.4971		-1.4412		C.ar		1		UNL1		0.3285
17		S		1.2919		0.1021		-2.7923		S.3		1		UNL1		0.1960
18		C		2.9735		-0.6271		-2.5041		C.3		1		UNL1		-0.5480
19		C		3.7760		-0.0900		-1.3419		C.ar		1		UNL1		0.1413
20		C		4.0294		1.2856		-1.1920		C.ar		1		UNL1		-0.1654
21		C		4.7966		1.7596		-0.1407		C.ar		1		UNL1		-0.1685
22		C		5.3349		0.8685		0.8052		C.ar		1		UNL1		0.3812
23		O		6.0648		1.4379		1.8009		O.3		1		UNL1		-0.5016
24		C		6.6122		0.5933		2.8047		C.3		1		UNL1		-0.2221
25		C		5.0943		-0.5022		0.6731		C.ar		1		UNL1		-0.1816
26		C		4.3213		-0.9652		-0.3975		C.ar		1		UNL1		-0.2126
27		N		0.8714		-0.9783		-0.3058		N.ar		1		UNL1		-0.6514
28		C		0.1215		-1.4493		0.7990		C.ar		1		UNL1		0.5799
29		O		0.7110		-1.8565		1.7925		O.2		1		UNL1		-0.5210
30		H		-2.6418		-3.8513		1.0530		H		1		UNL1		0.1661
31		H		-2.7606		-3.6597		2.8097		H		1		UNL1		0.1451
32		H		-1.1648		-3.7628		2.0455		H		1		UNL1		0.1680
33		H		-1.7292		-1.4118		2.6897		H		1		UNL1		0.1669
34		H		-3.1799		-1.4621		1.6966		H		1		UNL1		0.1468
35		H		-3.2839		-0.3933		-1.9697		H		1		UNL1		0.2286
36		H		-5.5408		-0.5282		0.7371		H		1		UNL1		0.1606
37		H		-6.4772		1.4571		1.8779		H		1		UNL1		0.1467
38		H		-5.3702		3.6931		1.6255		H		1		UNL1		0.1501
39		H		-2.3961		1.9298		-0.9054		H		1		UNL1		0.1648
40		H		3.4650		-0.4064		-3.4590		H		1		UNL1		0.2086
41		H		2.8734		-1.7151		-2.4452		H		1		UNL1		0.1970
42		H		3.6092		1.9899		-1.9053		H		1		UNL1		0.1490
43		H		4.9929		2.8203		-0.0206		H		1		UNL1		0.1509
44		H		7.3227		-0.1273		2.3794		H		1		UNL1		0.1556
45		H		5.8256		0.0524		3.3459		H		1		UNL1		0.1628
46		H		7.1382		1.2544		3.4952		H		1		UNL1		0.1768
47		H		5.4911		-1.2141		1.3869		H		1		UNL1		0.1463
48		H		4.1530		-2.0362		-0.4935		H		1		UNL1		0.1437
49		H		1.8771		-0.9440		-0.1571		H		1		UNL1		0.3688
@<TRIPOS>BOND
1		40		18		1
2		17		18		1
3		17		16		1
4		18		41		1
5		18		19		1
6		35		5		1
7		42		20		1
8		15		16		ar
9		15		4		ar
10		16		27		ar
11		19		20		ar
12		19		26		ar
13		20		21		ar
14		39		14		1
15		5		6		1
16		5		4		1
17		5		8		1
18		6		7		3
19		4		3		ar
20		48		26		1
21		26		25		ar
22		27		49		1
23		27		28		ar
24		14		8		ar
25		14		12		ar
26		8		9		ar
27		21		43		1
28		21		22		ar
29		13		12		1
30		12		11		ar
31		3		28		ar
32		3		2		1
33		9		36		1
34		9		10		ar
35		25		22		ar
36		25		47		1
37		28		29		2
38		22		23		1
39		30		1		1
40		11		10		ar
41		11		38		1
42		10		37		1
43		34		2		1
44		2		1		1
45		2		33		1
46		23		24		1
47		1		32		1
48		1		31		1
49		44		24		1
50		24		45		1
51		24		46		1

