@<TRIPOS>MOLECULE
WHQ-2015-BMC-624-3-3p
 44 46 0 0 0
SMALL
MULLIKEN_CHARGES
****
Gaussian 16 #p B3LYP/6-31G* opt
@<TRIPOS>ATOM
1		C		-1.1513		2.9994		-0.0000		C.3		1		UNL1		-0.5289
2		C		0.0222		2.0602		-0.0000		C.ar		1		UNL1		0.0842
3		C		1.3446		2.4754		-0.0001		C.ar		1		UNL1		0.0155
4		N		2.4078		1.6526		-0.0001		N.ar		1		UNL1		-0.4874
5		C		2.1252		0.3506		-0.0001		C.ar		1		UNL1		0.7041
6		N		3.1319		-0.5921		-0.0002		N.pl3		1		UNL1		-0.7683
7		C		4.5230		-0.4780		-0.0001		C.ar		1		UNL1		0.3823
8		C		5.2193		0.7447		0.0001		C.ar		1		UNL1		-0.1594
9		C		6.6087		0.7471		0.0002		C.ar		1		UNL1		-0.1534
10		C		7.3392		-0.4526		0.0001		C.ar		1		UNL1		0.1314
11		C		8.7700		-0.4349		0.0002		C.1		1		UNL1		0.2276
12		N		9.9341		-0.4218		0.0003		N.1		1		UNL1		-0.4843
13		C		6.6409		-1.6732		-0.0001		C.ar		1		UNL1		-0.1403
14		C		5.2561		-1.6823		-0.0002		C.ar		1		UNL1		-0.2063
15		N		0.8864		-0.1948		-0.0001		N.ar		1		UNL1		-0.5866
16		C		-0.1248		0.6542		-0.0001		C.ar		1		UNL1		0.5588
17		O		-1.3876		0.1721		-0.0000		O.3		1		UNL1		-0.5296
18		C		-1.5733		-1.2509		-0.0000		C.3		1		UNL1		-0.1072
19		C		-3.0627		-1.5942		0.0000		C.2		1		UNL1		0.5786
20		O		-3.3964		-2.7706		0.0001		O.2		1		UNL1		-0.5018
21		N		-3.9030		-0.5186		0.0000		N.am		1		UNL1		-0.7303
22		C		-5.3075		-0.5129		0.0000		C.ar		1		UNL1		0.3040
23		C		-6.1240		-1.6522		0.0001		C.ar		1		UNL1		-0.1641
24		C		-7.5129		-1.5065		0.0001		C.ar		1		UNL1		-0.1432
25		C		-8.1074		-0.2444		0.0001		C.ar		1		UNL1		-0.1292
26		C		-7.3045		0.8995		0.0001		C.ar		1		UNL1		-0.1970
27		C		-5.9309		0.7425		0.0000		C.ar		1		UNL1		0.3072
28		F		-5.1248		1.8401		0.0000		F		1		UNL1		-0.3070
29		H		-0.8110		4.0395		-0.0001		H		1		UNL1		0.1632
30		H		-1.7875		2.8525		-0.8813		H		1		UNL1		0.1731
31		H		-1.7874		2.8525		0.8813		H		1		UNL1		0.1731
32		H		1.5749		3.5401		-0.0000		H		1		UNL1		0.1504
33		H		2.7656		-1.5353		-0.0002		H		1		UNL1		0.3459
34		H		4.6636		1.6712		0.0001		H		1		UNL1		0.1901
35		H		7.1399		1.6936		0.0003		H		1		UNL1		0.1585
36		H		7.1908		-2.6087		-0.0002		H		1		UNL1		0.1586
37		H		4.7271		-2.6326		-0.0003		H		1		UNL1		0.1369
38		H		-1.1079		-1.6980		0.8833		H		1		UNL1		0.1955
39		H		-1.1080		-1.6980		-0.8835		H		1		UNL1		0.1955
40		H		-3.4615		0.3923		-0.0000		H		1		UNL1		0.3678
41		H		-5.6590		-2.6283		0.0000		H		1		UNL1		0.1924
42		H		-8.1339		-2.3975		0.0001		H		1		UNL1		0.1402
43		H		-9.1883		-0.1435		0.0001		H		1		UNL1		0.1396
44		H		-7.7227		1.9006		0.0001		H		1		UNL1		0.1501
@<TRIPOS>BOND
1		39		18		1
2		30		1		1
3		37		14		1
4		14		7		ar
5		14		13		ar
6		33		6		1
7		6		5		1
8		6		7		1
9		36		13		1
10		5		4		ar
11		5		15		ar
12		4		3		ar
13		15		16		ar
14		7		8		ar
15		13		10		ar
16		16		2		ar
17		16		17		1
18		3		32		1
19		3		2		ar
20		29		1		1
21		2		1		1
22		18		17		1
23		18		19		1
24		18		38		1
25		40		21		1
26		1		31		1
27		21		19		1
28		21		22		1
29		19		20		2
30		28		27		1
31		22		27		ar
32		22		23		ar
33		27		26		ar
34		41		23		1
35		23		24		ar
36		26		44		1
37		26		25		ar
38		24		25		ar
39		24		42		1
40		8		34		1
41		8		9		ar
42		25		43		1
43		10		9		ar
44		10		11		1
45		9		35		1
46		11		12		3

