@<TRIPOS>MOLECULE
WHQ-2014-MCC-5468-3-1b
 46 48 0 0 0
SMALL
MULLIKEN_CHARGES
****
Gaussian 16 #p B3LYP/6-31G* opt
@<TRIPOS>ATOM
1		C		-8.6670		-0.7614		0.6945		C.3		1		UNL1		-0.2187
2		O		-7.6909		-1.3418		-0.1581		O.3		1		UNL1		-0.5031
3		C		-6.3891		-0.9765		0.0049		C.ar		1		UNL1		0.3799
4		C		-5.4731		-1.5828		-0.8692		C.ar		1		UNL1		-0.1706
5		C		-4.1223		-1.2788		-0.7821		C.ar		1		UNL1		-0.1674
6		C		-3.6429		-0.3694		0.1752		C.ar		1		UNL1		0.1372
7		C		-2.1770		-0.0453		0.2668		C.3		1		UNL1		-0.4912
8		S		-1.7957		1.3791		-0.8665		S.3		1		UNL1		0.1623
9		C		-0.0596		1.5879		-0.5732		C.ar		1		UNL1		0.3275
10		N		0.6062		0.8021		0.2244		N.ar		1		UNL1		-0.5385
11		C		1.9539		1.0512		0.3894		C.ar		1		UNL1		0.2412
12		C		2.6057		0.0452		1.3531		C.3		1		UNL1		-0.2957
13		C		3.3161		0.7256		2.4449		C.1		1		UNL1		0.3697
14		N		3.8678		1.2571		3.3171		N.1		1		UNL1		-0.4924
15		C		3.4660		-1.0093		0.6388		C.ar		1		UNL1		0.1503
16		C		4.7970		-1.2599		0.9861		C.ar		1		UNL1		-0.1888
17		C		5.5331		-2.2462		0.3258		C.ar		1		UNL1		-0.2032
18		C		4.9195		-2.9772		-0.6819		C.ar		1		UNL1		0.3872
19		F		5.6231		-3.9314		-1.3241		F		1		UNL1		-0.2941
20		C		3.5954		-2.7551		-1.0474		C.ar		1		UNL1		-0.1999
21		C		2.8739		-1.7686		-0.3806		C.ar		1		UNL1		-0.1668
22		C		2.6443		2.0555		-0.2399		C.ar		1		UNL1		0.0708
23		C		4.1124		2.3438		-0.0851		C.3		1		UNL1		-0.5440
24		C		1.9016		2.9456		-1.1303		C.ar		1		UNL1		0.5792
25		O		2.3478		3.8941		-1.7602		O.2		1		UNL1		-0.5133
26		N		0.5287		2.6237		-1.2331		N.ar		1		UNL1		-0.6487
27		C		-4.5668		0.2290		1.0364		C.ar		1		UNL1		-0.1733
28		C		-5.9298		-0.0651		0.9637		C.ar		1		UNL1		-0.1940
29		H		-8.7045		0.3297		0.5796		H		1		UNL1		0.1559
30		H		-9.6229		-1.1895		0.3882		H		1		UNL1		0.1749
31		H		-8.4798		-1.0081		1.7477		H		1		UNL1		0.1553
32		H		-5.8469		-2.2892		-1.6036		H		1		UNL1		0.1455
33		H		-3.4242		-1.7566		-1.4655		H		1		UNL1		0.1362
34		H		-1.5467		-0.8813		-0.0417		H		1		UNL1		0.2007
35		H		-1.8789		0.2553		1.2728		H		1		UNL1		0.2039
36		H		1.7603		-0.4747		1.8207		H		1		UNL1		0.2190
37		H		5.2680		-0.6888		1.7804		H		1		UNL1		0.1674
38		H		6.5667		-2.4490		0.5855		H		1		UNL1		0.1561
39		H		3.1495		-3.3497		-1.8378		H		1		UNL1		0.1524
40		H		1.8385		-1.5859		-0.6541		H		1		UNL1		0.1525
41		H		4.3080		2.9515		0.8071		H		1		UNL1		0.1898
42		H		4.4595		2.9100		-0.9524		H		1		UNL1		0.1907
43		H		4.7025		1.4279		0.0028		H		1		UNL1		0.1646
44		H		-0.0097		3.2344		-1.8398		H		1		UNL1		0.3575
45		H		-4.2210		0.9381		1.7849		H		1		UNL1		0.1377
46		H		-6.6148		0.4145		1.6531		H		1		UNL1		0.1385
@<TRIPOS>BOND
1		44		26		1
2		39		20		1
3		25		24		2
4		32		4		1
5		33		5		1
6		19		18		1
7		26		24		ar
8		26		9		ar
9		24		22		ar
10		20		18		ar
11		20		21		ar
12		42		23		1
13		4		5		ar
14		4		3		ar
15		8		9		1
16		8		7		1
17		5		6		ar
18		18		17		ar
19		40		21		1
20		9		10		ar
21		21		15		ar
22		22		23		1
23		22		11		ar
24		2		3		1
25		2		1		1
26		23		43		1
27		23		41		1
28		34		7		1
29		3		28		ar
30		6		7		1
31		6		27		ar
32		10		11		ar
33		7		35		1
34		17		38		1
35		17		16		ar
36		30		1		1
37		11		12		1
38		29		1		1
39		15		16		ar
40		15		12		1
41		1		31		1
42		28		27		ar
43		28		46		1
44		16		37		1
45		27		45		1
46		12		36		1
47		12		13		1
48		13		14		3

