@<TRIPOS>MOLECULE
WHQ-2015-BMC-624-3-3n
 45 47 0 0 0
SMALL
MULLIKEN_CHARGES
****
Gaussian 16 #p B3LYP/6-31G* opt
@<TRIPOS>ATOM
1		C		-2.0428		-3.3506		2.7843		C.3		1		UNL1		-0.5149
2		C		-1.5067		-2.7612		1.5086		C.ar		1		UNL1		0.3454
3		C		-0.3409		-3.2286		0.9158		C.ar		1		UNL1		-0.2584
4		C		0.0414		-2.5894		-0.2728		C.ar		1		UNL1		0.5885
5		O		1.1821		-3.0243		-0.8711		O.3		1		UNL1		-0.5255
6		C		1.5344		-2.4423		-2.1339		C.3		1		UNL1		-0.1327
7		C		2.3039		-1.1231		-2.0233		C.2		1		UNL1		0.5954
8		O		2.4192		-0.3947		-2.9953		O.2		1		UNL1		-0.4901
9		N		2.8712		-0.9067		-0.7916		N.am		1		UNL1		-0.7272
10		C		3.6565		0.1745		-0.3829		C.ar		1		UNL1		0.3224
11		C		4.0313		1.2559		-1.1952		C.ar		1		UNL1		-0.1699
12		C		4.8209		2.2765		-0.6734		C.ar		1		UNL1		-0.1485
13		C		5.2543		2.2445		0.6615		C.ar		1		UNL1		0.1362
14		C		6.0673		3.2996		1.1874		C.1		1		UNL1		0.2351
15		N		6.7281		4.1570		1.6138		N.1		1		UNL1		-0.4732
16		C		4.8861		1.1661		1.4858		C.ar		1		UNL1		-0.2129
17		C		4.1031		0.1669		0.9491		C.ar		1		UNL1		0.3170
18		F		3.7341		-0.8843		1.7228		F		1		UNL1		-0.2973
19		N		-0.6392		-1.5998		-0.8196		N.ar		1		UNL1		-0.5792
20		C		-1.7617		-1.2244		-0.1592		C.ar		1		UNL1		0.7058
21		N		-2.4264		-0.1902		-0.7786		N.pl3		1		UNL1		-0.7715
22		C		-3.5997		0.4989		-0.4601		C.ar		1		UNL1		0.3809
23		C		-4.4002		0.2273		0.6642		C.ar		1		UNL1		-0.1585
24		C		-5.5515		0.9727		0.8870		C.ar		1		UNL1		-0.1533
25		C		-5.9358		1.9985		0.0082		C.ar		1		UNL1		0.1325
26		C		-7.1249		2.7572		0.2500		C.1		1		UNL1		0.2286
27		N		-8.0923		3.3743		0.4459		N.1		1		UNL1		-0.4824
28		C		-5.1333		2.2683		-1.1144		C.ar		1		UNL1		-0.1401
29		C		-3.9846		1.5287		-1.3419		C.ar		1		UNL1		-0.2059
30		N		-2.2265		-1.7523		0.9724		N.ar		1		UNL1		-0.5401
31		H		-2.1199		-2.5740		3.5533		H		1		UNL1		0.1831
32		H		-1.4068		-4.1571		3.1583		H		1		UNL1		0.1618
33		H		-3.0531		-3.7424		2.6215		H		1		UNL1		0.1830
34		H		0.2441		-4.0407		1.3286		H		1		UNL1		0.1536
35		H		0.6531		-2.2649		-2.7503		H		1		UNL1		0.2067
36		H		2.1785		-3.1819		-2.6184		H		1		UNL1		0.1978
37		H		2.6895		-1.6099		-0.0854		H		1		UNL1		0.3621
38		H		3.6981		1.2783		-2.2232		H		1		UNL1		0.2047
39		H		5.1069		3.1092		-1.3068		H		1		UNL1		0.1677
40		H		5.2017		1.1070		2.5210		H		1		UNL1		0.1774
41		H		-1.9523		0.1119		-1.6203		H		1		UNL1		0.3497
42		H		-4.1095		-0.5601		1.3440		H		1		UNL1		0.1867
43		H		-6.1655		0.7586		1.7561		H		1		UNL1		0.1589
44		H		-5.4166		3.0581		-1.8024		H		1		UNL1		0.1604
45		H		-3.3716		1.7467		-2.2134		H		1		UNL1		0.1402
@<TRIPOS>BOND
1		8		7		2
2		35		6		1
3		36		6		1
4		38		11		1
5		45		29		1
6		6		7		1
7		6		5		1
8		7		9		1
9		44		28		1
10		41		21		1
11		29		28		ar
12		29		22		ar
13		39		12		1
14		11		12		ar
15		11		10		ar
16		28		25		ar
17		5		4		1
18		19		4		ar
19		19		20		ar
20		9		10		1
21		9		37		1
22		21		22		1
23		21		20		1
24		12		13		ar
25		22		23		ar
26		10		17		ar
27		4		3		ar
28		20		30		ar
29		25		26		1
30		25		24		ar
31		26		27		3
32		13		14		1
33		13		16		ar
34		23		24		ar
35		23		42		1
36		24		43		1
37		3		34		1
38		3		2		ar
39		17		16		ar
40		17		18		1
41		30		2		ar
42		14		15		3
43		16		40		1
44		2		1		1
45		33		1		1
46		1		32		1
47		1		31		1

