@<TRIPOS>MOLECULE
WHQ-2014-MCC-5468-3-1p
 52 54 0 0 0
SMALL
MULLIKEN_CHARGES
****
Gaussian 16 #p B3LYP/6-31G* opt
@<TRIPOS>ATOM
1		C		8.1870		-1.6853		0.6437		C.3		1		UNL1		-0.2179
2		O		7.4000		-0.9370		-0.2707		O.3		1		UNL1		-0.5039
3		C		6.0467		-0.9371		-0.1110		C.ar		1		UNL1		0.3795
4		C		5.3627		-1.6261		0.8984		C.ar		1		UNL1		-0.1946
5		C		3.9704		-1.5490		0.9625		C.ar		1		UNL1		-0.1714
6		C		3.2376		-0.7943		0.0418		C.ar		1		UNL1		0.1381
7		C		1.7379		-0.7155		0.1232		C.3		1		UNL1		-0.5043
8		S		1.0051		-2.1342		-0.8358		S.3		1		UNL1		0.1619
9		C		-0.7188		-1.9270		-0.4880		C.ar		1		UNL1		0.3291
10		N		-1.1624		-0.9703		0.2695		N.ar		1		UNL1		-0.5167
11		C		-2.5195		-0.8820		0.4792		C.ar		1		UNL1		0.2448
12		C		-2.8641		0.3390		1.3523		C.3		1		UNL1		-0.3275
13		C		-2.1603		0.2383		2.6415		C.1		1		UNL1		0.3729
14		N		-1.6160		0.1591		3.6635		N.1		1		UNL1		-0.4710
15		C		-2.5287		1.6373		0.6109		C.ar		1		UNL1		0.1616
16		C		-3.5317		2.3155		-0.0883		C.ar		1		UNL1		-0.1689
17		C		-3.2220		3.4548		-0.8328		C.ar		1		UNL1		-0.1331
18		C		-1.9099		3.9244		-0.8981		C.ar		1		UNL1		-0.1414
19		C		-0.9216		3.2391		-0.1941		C.ar		1		UNL1		0.0700
20		BR		0.8946		3.8350		-0.2893		Br		1		UNL1		-0.1243
21		C		-1.2144		2.1132		0.5680		C.ar		1		UNL1		-0.1680
22		C		-3.4548		-1.7445		-0.0433		C.ar		1		UNL1		0.0545
23		C		-4.9597		-1.6765		0.1792		C.3		1		UNL1		-0.1531
24		C		-5.7217		-1.4091		-1.1357		C.3		1		UNL1		-0.4560
25		C		-5.4932		-2.9352		0.8944		C.3		1		UNL1		-0.4546
26		C		-2.9579		-2.8270		-0.8999		C.ar		1		UNL1		0.5875
27		O		-3.6209		-3.6892		-1.4656		O.2		1		UNL1		-0.5196
28		N		-1.5570		-2.8331		-1.0657		N.ar		1		UNL1		-0.6499
29		C		3.9401		-0.1111		-0.9643		C.ar		1		UNL1		-0.1689
30		C		5.3240		-0.1767		-1.0432		C.ar		1		UNL1		-0.1711
31		H		7.9393		-2.7543		0.6083		H		1		UNL1		0.1547
32		H		9.2229		-1.5447		0.3304		H		1		UNL1		0.1733
33		H		8.0664		-1.3204		1.6721		H		1		UNL1		0.1554
34		H		5.8970		-2.2158		1.6343		H		1		UNL1		0.1374
35		H		3.4489		-2.0864		1.7511		H		1		UNL1		0.1402
36		H		1.3678		-0.8017		1.1465		H		1		UNL1		0.2163
37		H		1.3534		0.2104		-0.3094		H		1		UNL1		0.2098
38		H		-3.9320		0.3451		1.5795		H		1		UNL1		0.1992
39		H		-4.5561		1.9536		-0.0558		H		1		UNL1		0.1405
40		H		-4.0062		3.9804		-1.3701		H		1		UNL1		0.1468
41		H		-1.6587		4.8030		-1.4818		H		1		UNL1		0.1582
42		H		-0.4315		1.6039		1.1151		H		1		UNL1		0.1816
43		H		-5.1675		-0.8296		0.8416		H		1		UNL1		0.1224
44		H		-6.7940		-1.3066		-0.9316		H		1		UNL1		0.1418
45		H		-5.5811		-2.2326		-1.8395		H		1		UNL1		0.1879
46		H		-5.3767		-0.4836		-1.6117		H		1		UNL1		0.1373
47		H		-5.3483		-3.8241		0.2766		H		1		UNL1		0.1872
48		H		-6.5651		-2.8224		1.0949		H		1		UNL1		0.1415
49		H		-4.9847		-3.0897		1.8528		H		1		UNL1		0.1438
50		H		-1.2032		-3.5769		-1.6595		H		1		UNL1		0.3568
51		H		3.3926		0.4868		-1.6890		H		1		UNL1		0.1402
52		H		5.8714		0.3551		-1.8148		H		1		UNL1		0.1439
@<TRIPOS>BOND
1		45		24		1
2		52		30		1
3		51		29		1
4		50		28		1
5		46		24		1
6		41		18		1
7		27		26		2
8		40		17		1
9		24		44		1
10		24		23		1
11		28		26		ar
12		28		9		ar
13		30		29		ar
14		30		3		ar
15		29		6		ar
16		26		22		ar
17		18		17		ar
18		18		19		ar
19		8		9		1
20		8		7		1
21		17		16		ar
22		9		10		ar
23		37		7		1
24		20		19		1
25		2		3		1
26		2		1		1
27		19		21		ar
28		3		4		ar
29		16		39		1
30		16		15		ar
31		22		23		1
32		22		11		ar
33		6		7		1
34		6		5		ar
35		7		36		1
36		23		43		1
37		23		25		1
38		10		11		ar
39		47		25		1
40		32		1		1
41		11		12		1
42		21		15		ar
43		21		42		1
44		31		1		1
45		15		12		1
46		1		33		1
47		25		48		1
48		25		49		1
49		4		5		ar
50		4		34		1
51		5		35		1
52		12		38		1
53		12		13		1
54		13		14		3

