@<TRIPOS>MOLECULE
WHQ-2014-SQER-761-11
 43 46 0 0 0
SMALL
MULLIKEN_CHARGES
****
Gaussian 16 #p B3LYP/6-31G* opt
@<TRIPOS>ATOM
1		C		0.4439		3.1233		0.1424		C.3		1		UNL1		-0.5141
2		C		0.4293		1.6216		0.0428		C.ar		1		UNL1		0.3418
3		C		-0.7620		0.9063		-0.0327		C.ar		1		UNL1		-0.2610
4		C		-0.6401		-0.4902		-0.1204		C.ar		1		UNL1		0.5418
5		O		-1.7014		-1.3369		-0.1860		O.3		1		UNL1		-0.5363
6		C		-2.9907		-0.8272		-0.3287		C.ar		1		UNL1		0.3199
7		C		-3.4195		-0.3841		-1.6029		C.ar		1		UNL1		-0.1527
8		C		-4.7167		0.0426		-1.7662		C.ar		1		UNL1		-0.2040
9		C		-5.6342		0.0404		-0.6801		C.ar		1		UNL1		0.1454
10		C		-6.9793		0.4737		-0.8235		C.ar		1		UNL1		-0.1926
11		C		-7.8439		0.4549		0.2476		C.ar		1		UNL1		-0.1337
12		C		-7.4013		-0.0002		1.5140		C.ar		1		UNL1		-0.1349
13		C		-6.1041		-0.4279		1.6868		C.ar		1		UNL1		-0.1886
14		C		-5.1867		-0.4202		0.6019		C.ar		1		UNL1		0.1278
15		C		-3.8411		-0.8517		0.7491		C.ar		1		UNL1		-0.2338
16		N		0.5285		-1.1103		-0.1280		N.ar		1		UNL1		-0.5480
17		C		1.6150		-0.3177		-0.0480		C.ar		1		UNL1		0.6976
18		N		2.7980		-1.0300		-0.0591		N.pl3		1		UNL1		-0.7708
19		C		4.1344		-0.6382		0.0016		C.ar		1		UNL1		0.3831
20		C		5.0981		-1.6674		-0.0337		C.ar		1		UNL1		-0.2059
21		C		6.4514		-1.3796		0.0209		C.ar		1		UNL1		-0.1409
22		C		6.8873		-0.0457		0.1132		C.ar		1		UNL1		0.1305
23		C		8.2837		0.2600		0.1700		C.1		1		UNL1		0.2262
24		N		9.4204		0.5081		0.2162		N.1		1		UNL1		-0.4867
25		C		5.9279		0.9797		0.1485		C.ar		1		UNL1		-0.1540
26		C		4.5688		0.6976		0.0940		C.ar		1		UNL1		-0.1598
27		N		1.6318		1.0158		0.0338		N.ar		1		UNL1		-0.5411
28		H		1.0006		3.5505		-0.6993		H		1		UNL1		0.1795
29		H		0.9589		3.4345		1.0582		H		1		UNL1		0.1801
30		H		-0.5665		3.5408		0.1460		H		1		UNL1		0.1591
31		H		-1.7242		1.3999		-0.0170		H		1		UNL1		0.1579
32		H		-2.7193		-0.3994		-2.4321		H		1		UNL1		0.1496
33		H		-5.0584		0.3820		-2.7408		H		1		UNL1		0.1419
34		H		-7.3157		0.8210		-1.7975		H		1		UNL1		0.1351
35		H		-8.8705		0.7887		0.1254		H		1		UNL1		0.1361
36		H		-8.0929		-0.0112		2.3518		H		1		UNL1		0.1369
37		H		-5.7638		-0.7784		2.6581		H		1		UNL1		0.1367
38		H		-3.4827		-1.2111		1.7092		H		1		UNL1		0.1479
39		H		2.6290		-2.0258		-0.1243		H		1		UNL1		0.3486
40		H		4.7733		-2.7029		-0.1050		H		1		UNL1		0.1371
41		H		7.1796		-2.1837		-0.0074		H		1		UNL1		0.1568
42		H		6.2555		2.0122		0.2197		H		1		UNL1		0.1558
43		H		3.8356		1.4904		0.1216		H		1		UNL1		0.1855
@<TRIPOS>BOND
1		33		8		1
2		32		7		1
3		34		10		1
4		8		7		ar
5		8		9		ar
6		7		6		ar
7		10		9		ar
8		10		11		ar
9		28		1		1
10		9		14		ar
11		6		5		1
12		6		15		ar
13		5		4		1
14		16		4		ar
15		16		17		ar
16		39		18		1
17		4		3		ar
18		40		20		1
19		18		17		1
20		18		19		1
21		17		27		ar
22		20		19		ar
23		20		21		ar
24		3		31		1
25		3		2		ar
26		41		21		1
27		19		26		ar
28		21		22		ar
29		27		2		ar
30		2		1		1
31		26		43		1
32		26		25		ar
33		22		25		ar
34		22		23		1
35		35		11		1
36		1		30		1
37		1		29		1
38		25		42		1
39		23		24		3
40		11		12		ar
41		14		15		ar
42		14		13		ar
43		15		38		1
44		12		13		ar
45		12		36		1
46		13		37		1

