@<TRIPOS>MOLECULE
WHQ-2014-SQER-761-4
 40 43 0 0 0
SMALL
MULLIKEN_CHARGES
****
Gaussian 16 #p B3LYP/6-31G* opt
@<TRIPOS>ATOM
1		N		-8.0822		1.6337		-0.0932		N.1		1		UNL1		-0.4856
2		C		-6.9642		1.3093		-0.1119		C.1		1		UNL1		0.2269
3		C		-5.5896		0.9128		-0.1353		C.ar		1		UNL1		0.1309
4		C		-4.5861		1.8379		-0.4740		C.ar		1		UNL1		-0.1407
5		C		-3.2578		1.4471		-0.4943		C.ar		1		UNL1		-0.2054
6		C		-2.8857		0.1242		-0.1784		C.ar		1		UNL1		0.3825
7		N		-1.5235		-0.1711		-0.2280		N.pl3		1		UNL1		-0.7597
8		C		-0.8126		-1.3262		0.0201		C.ar		1		UNL1		0.6869
9		N		-1.4431		-2.4475		0.3856		N.ar		1		UNL1		-0.4826
10		C		-0.6461		-3.5051		0.6039		C.ar		1		UNL1		0.0739
11		C		0.7316		-3.4699		0.4704		C.ar		1		UNL1		-0.1914
12		C		1.2752		-2.2321		0.0765		C.ar		1		UNL1		0.1222
13		S		3.0468		-2.1243		-0.1142		S.3		1		UNL1		0.1557
14		C		3.3144		-0.4319		-0.6511		C.ar		1		UNL1		-0.1595
15		C		3.5950		-0.2270		-1.9876		C.ar		1		UNL1		-0.1485
16		C		3.8930		1.0666		-2.4745		C.ar		1		UNL1		-0.1279
17		C		3.9032		2.1391		-1.6147		C.ar		1		UNL1		-0.1879
18		C		3.6239		1.9699		-0.2323		C.ar		1		UNL1		0.1409
19		C		3.6369		3.0737		0.6628		C.ar		1		UNL1		-0.1930
20		C		3.3727		2.9026		2.0017		C.ar		1		UNL1		-0.1321
21		C		3.0848		1.6116		2.5041		C.ar		1		UNL1		-0.1350
22		C		3.0617		0.5203		1.6644		C.ar		1		UNL1		-0.1922
23		C		3.3265		0.6600		0.2762		C.ar		1		UNL1		0.1382
24		N		0.5190		-1.1681		-0.1485		N.ar		1		UNL1		-0.5073
25		C		-3.8883		-0.8035		0.1607		C.ar		1		UNL1		-0.1596
26		C		-5.2191		-0.4051		0.1792		C.ar		1		UNL1		-0.1535
27		H		-4.8560		2.8599		-0.7195		H		1		UNL1		0.1571
28		H		-2.4902		2.1713		-0.7574		H		1		UNL1		0.1375
29		H		-0.9110		0.5921		-0.4875		H		1		UNL1		0.3506
30		H		-1.1499		-4.4230		0.9015		H		1		UNL1		0.1561
31		H		1.3498		-4.3409		0.6547		H		1		UNL1		0.1576
32		H		3.5842		-1.0705		-2.6705		H		1		UNL1		0.1538
33		H		4.1099		1.2033		-3.5300		H		1		UNL1		0.1402
34		H		4.1303		3.1374		-1.9812		H		1		UNL1		0.1385
35		H		3.8631		4.0605		0.2660		H		1		UNL1		0.1346
36		H		3.3869		3.7544		2.6760		H		1		UNL1		0.1362
37		H		2.8805		1.4808		3.5633		H		1		UNL1		0.1370
38		H		2.8426		-0.4654		2.0599		H		1		UNL1		0.1572
39		H		-3.6103		-1.8187		0.4040		H		1		UNL1		0.1896
40		H		-5.9874		-1.1257		0.4417		H		1		UNL1		0.1576
@<TRIPOS>BOND
1		33		16		1
2		32		15		1
3		16		15		ar
4		16		17		ar
5		15		14		ar
6		34		17		1
7		17		18		ar
8		28		5		1
9		27		4		1
10		14		13		1
11		14		23		ar
12		5		4		ar
13		5		6		ar
14		29		7		1
15		4		3		ar
16		18		23		ar
17		18		19		ar
18		7		6		1
19		7		8		1
20		6		25		ar
21		24		8		ar
22		24		12		ar
23		3		2		1
24		3		26		ar
25		13		12		1
26		2		1		3
27		8		9		ar
28		12		11		ar
29		25		26		ar
30		25		39		1
31		26		40		1
32		35		19		1
33		23		22		ar
34		9		10		ar
35		11		10		ar
36		11		31		1
37		10		30		1
38		19		20		ar
39		22		38		1
40		22		21		ar
41		20		21		ar
42		20		36		1
43		21		37		1

