@<TRIPOS>MOLECULE
WHQ-2015-BMC-624-3-3q
 44 46 0 0 0
SMALL
MULLIKEN_CHARGES
****
Gaussian 16 #p B3LYP/6-31G* opt
@<TRIPOS>ATOM
1		C		0.4760		4.2195		0.3051		C.3		1		UNL1		-0.5203
2		C		1.3278		2.9841		0.2285		C.ar		1		UNL1		0.0803
3		C		2.7125		2.9926		0.2203		C.ar		1		UNL1		0.0145
4		N		3.4868		1.8939		0.1463		N.ar		1		UNL1		-0.4895
5		C		2.8333		0.7368		0.0762		C.ar		1		UNL1		0.7015
6		N		3.5197		-0.4590		-0.0067		N.pl3		1		UNL1		-0.7680
7		C		4.8819		-0.7572		-0.0360		C.ar		1		UNL1		0.3832
8		C		5.9070		0.2053		0.0239		C.ar		1		UNL1		-0.1597
9		C		7.2357		-0.1990		-0.0109		C.ar		1		UNL1		-0.1535
10		C		7.5823		-1.5569		-0.1054		C.ar		1		UNL1		0.1309
11		C		8.9550		-1.9591		-0.1397		C.1		1		UNL1		0.2270
12		N		10.0713		-2.2885		-0.1672		N.1		1		UNL1		-0.4850
13		C		6.5564		-2.5168		-0.1657		C.ar		1		UNL1		-0.1404
14		C		5.2301		-2.1204		-0.1314		C.ar		1		UNL1		-0.2066
15		N		1.4889		0.5778		0.0784		N.ar		1		UNL1		-0.5945
16		C		0.7708		1.6860		0.1512		C.ar		1		UNL1		0.5554
17		O		-0.5745		1.6096		0.1558		O.3		1		UNL1		-0.4804
18		C		-1.1674		0.3230		0.0289		C.3		1		UNL1		-0.1209
19		C		-2.6570		0.5442		-0.2606		C.2		1		UNL1		0.6100
20		O		-3.0458		1.4509		-0.9752		O.2		1		UNL1		-0.4817
21		N		-3.4612		-0.4105		0.3173		N.am		1		UNL1		-0.7241
22		C		-4.8545		-0.5943		0.1753		C.ar		1		UNL1		0.3562
23		C		-5.6661		0.2477		-0.5997		C.ar		1		UNL1		-0.1550
24		C		-7.0341		-0.0045		-0.6910		C.ar		1		UNL1		-0.1459
25		C		-7.5958		-1.0853		-0.0146		C.ar		1		UNL1		-0.0628
26		CL		-9.3226		-1.3916		-0.1362		Cl		1		UNL1		-0.0213
27		C		-6.8000		-1.9273		0.7606		C.ar		1		UNL1		-0.1341
28		C		-5.4344		-1.6783		0.8513		C.ar		1		UNL1		-0.1914
29		H		-0.1413		4.2260		1.2113		H		1		UNL1		0.1719
30		H		1.1007		5.1182		0.3113		H		1		UNL1		0.1562
31		H		-0.2128		4.2817		-0.5449		H		1		UNL1		0.1848
32		H		3.2467		3.9403		0.2740		H		1		UNL1		0.1492
33		H		2.8927		-1.2510		-0.0575		H		1		UNL1		0.3410
34		H		5.6470		1.2514		0.0964		H		1		UNL1		0.1909
35		H		8.0213		0.5486		0.0357		H		1		UNL1		0.1584
36		H		6.8075		-3.5700		-0.2394		H		1		UNL1		0.1571
37		H		4.4454		-2.8723		-0.1791		H		1		UNL1		0.1328
38		H		-0.9919		-0.2640		0.9392		H		1		UNL1		0.1532
39		H		-0.7153		-0.2227		-0.8074		H		1		UNL1		0.1946
40		H		-3.0046		-1.0780		0.9248		H		1		UNL1		0.3340
41		H		-5.2253		1.0870		-1.1186		H		1		UNL1		0.1977
42		H		-7.6627		0.6457		-1.2901		H		1		UNL1		0.1626
43		H		-7.2410		-2.7673		1.2862		H		1		UNL1		0.1592
44		H		-4.8138		-2.3373		1.4552		H		1		UNL1		0.1325
@<TRIPOS>BOND
1		42		24		1
2		41		23		1
3		20		19		2
4		39		18		1
5		24		23		ar
6		24		25		ar
7		23		22		ar
8		31		1		1
9		19		18		1
10		19		21		1
11		36		13		1
12		37		14		1
13		12		11		3
14		13		14		ar
15		13		10		ar
16		11		10		1
17		26		25		1
18		14		7		ar
19		10		9		ar
20		33		6		1
21		7		6		1
22		7		8		ar
23		25		27		ar
24		9		8		ar
25		9		35		1
26		6		5		1
27		8		34		1
28		18		17		1
29		18		38		1
30		5		15		ar
31		5		4		ar
32		15		16		ar
33		4		3		ar
34		16		17		1
35		16		2		ar
36		22		21		1
37		22		28		ar
38		3		2		ar
39		3		32		1
40		2		1		1
41		1		30		1
42		1		29		1
43		21		40		1
44		27		28		ar
45		27		43		1
46		28		44		1

