@<TRIPOS>MOLECULE
WHQ-2014-SQER-761-44
 49 52 0 0 0
SMALL
MULLIKEN_CHARGES
****
Gaussian 16 #p B3LYP/6-31G* opt
@<TRIPOS>ATOM
1		C		-1.3769		4.2191		-1.6914		C.3		1		UNL1		-0.4528
2		C		-0.6250		3.9720		-0.3679		C.3		1		UNL1		-0.1520
3		C		-1.5615		4.0673		0.8545		C.3		1		UNL1		-0.4551
4		C		0.1709		2.6752		-0.3693		C.ar		1		UNL1		0.1016
5		C		1.5505		2.5806		-0.1789		C.ar		1		UNL1		0.0540
6		CL		2.5192		4.0336		0.0653		Cl		1		UNL1		0.0145
7		N		2.2613		1.4574		-0.1560		N.ar		1		UNL1		-0.4888
8		C		1.5717		0.3305		-0.3303		C.ar		1		UNL1		0.7034
9		N		2.2062		-0.8904		-0.3187		N.pl3		1		UNL1		-0.7730
10		C		3.5448		-1.2518		-0.1474		C.ar		1		UNL1		0.3818
11		C		4.5947		-0.3379		0.0566		C.ar		1		UNL1		-0.1625
12		C		5.8938		-0.8055		0.2139		C.ar		1		UNL1		-0.1538
13		C		6.1833		-2.1792		0.1735		C.ar		1		UNL1		0.1321
14		C		7.5259		-2.6470		0.3364		C.1		1		UNL1		0.2283
15		N		8.6172		-3.0303		0.4682		N.1		1		UNL1		-0.4838
16		C		5.1316		-3.0900		-0.0300		C.ar		1		UNL1		-0.1402
17		C		3.8348		-2.6305		-0.1876		C.ar		1		UNL1		-0.2056
18		N		0.2427		0.2496		-0.5297		N.ar		1		UNL1		-0.5618
19		C		-0.4132		1.3938		-0.5428		C.ar		1		UNL1		0.5419
20		O		-1.7576		1.3579		-0.7484		O.3		1		UNL1		-0.5608
21		C		-2.3977		0.1301		-0.8829		C.ar		1		UNL1		0.3347
22		C		-2.5353		-0.4151		-2.1776		C.ar		1		UNL1		-0.1466
23		C		-3.2494		-1.5733		-2.3577		C.ar		1		UNL1		-0.2057
24		C		-3.8573		-2.2345		-1.2578		C.ar		1		UNL1		0.1552
25		C		-4.6001		-3.4325		-1.4319		C.ar		1		UNL1		-0.1976
26		C		-5.1873		-4.0652		-0.3609		C.ar		1		UNL1		-0.1295
27		C		-5.0557		-3.5216		0.9385		C.ar		1		UNL1		-0.1332
28		C		-4.3439		-2.3614		1.1464		C.ar		1		UNL1		-0.1869
29		C		-3.7249		-1.6842		0.0625		C.ar		1		UNL1		0.0845
30		C		-2.9753		-0.4798		0.2081		C.ar		1		UNL1		-0.0106
31		BR		-2.7437		0.3246		1.9201		Br		1		UNL1		-0.0971
32		H		-2.1818		3.4960		-1.8443		H		1		UNL1		0.1648
33		H		-0.6957		4.1649		-2.5483		H		1		UNL1		0.1454
34		H		-1.8199		5.2215		-1.6786		H		1		UNL1		0.1470
35		H		0.1079		4.7772		-0.2706		H		1		UNL1		0.1590
36		H		-0.9890		4.0211		1.7876		H		1		UNL1		0.1483
37		H		-2.2967		3.2583		0.8694		H		1		UNL1		0.1742
38		H		-2.1004		5.0217		0.8367		H		1		UNL1		0.1446
39		H		1.5541		-1.6525		-0.4542		H		1		UNL1		0.3509
40		H		4.3835		0.7211		0.0902		H		1		UNL1		0.1995
41		H		6.6995		-0.0955		0.3710		H		1		UNL1		0.1612
42		H		5.3392		-4.1546		-0.0632		H		1		UNL1		0.1585
43		H		3.0290		-3.3441		-0.3441		H		1		UNL1		0.1377
44		H		-2.0708		0.1040		-3.0094		H		1		UNL1		0.1523
45		H		-3.3603		-1.9976		-3.3518		H		1		UNL1		0.1450
46		H		-4.6956		-3.8407		-2.4350		H		1		UNL1		0.1384
47		H		-5.7524		-4.9810		-0.5092		H		1		UNL1		0.1394
48		H		-5.5212		-4.0244		1.7815		H		1		UNL1		0.1408
49		H		-4.2464		-1.9494		2.1443		H		1		UNL1		0.1586
@<TRIPOS>BOND
1		45		23		1
2		44		22		1
3		33		1		1
4		46		25		1
5		23		22		ar
6		23		24		ar
7		22		21		ar
8		32		1		1
9		1		34		1
10		1		2		1
11		25		24		ar
12		25		26		ar
13		24		29		ar
14		21		20		1
15		21		30		ar
16		20		19		1
17		19		18		ar
18		19		4		ar
19		18		8		ar
20		47		26		1
21		39		9		1
22		4		2		1
23		4		5		ar
24		2		35		1
25		2		3		1
26		26		27		ar
27		43		17		1
28		8		9		1
29		8		7		ar
30		9		10		1
31		17		10		ar
32		17		16		ar
33		5		7		ar
34		5		6		1
35		10		11		ar
36		42		16		1
37		16		13		ar
38		11		40		1
39		11		12		ar
40		29		30		ar
41		29		28		ar
42		13		12		ar
43		13		14		1
44		30		31		1
45		12		41		1
46		14		15		3
47		38		3		1
48		3		37		1
49		3		36		1
50		27		28		ar
51		27		48		1
52		28		49		1

