@<TRIPOS>MOLECULE
WHQ-2014-SQER-761-53
 45 48 0 0 0
SMALL
MULLIKEN_CHARGES
****
Gaussian 16 #p B3LYP/6-31G* opt
@<TRIPOS>ATOM
1		C		0.6925		3.6910		0.1340		C.3		1		UNL1		-0.3012
2		N		-0.4792		2.8436		0.0744		N.pl3		1		UNL1		-0.6361
3		C		-0.4563		1.4860		0.0202		C.ar		1		UNL1		0.5689
4		C		0.7450		0.7560		-0.0344		C.ar		1		UNL1		-0.2814
5		C		0.5984		-0.6297		-0.0939		C.ar		1		UNL1		0.5357
6		O		1.6552		-1.4899		-0.1363		O.3		1		UNL1		-0.5429
7		C		2.9451		-0.9978		-0.3018		C.ar		1		UNL1		0.3248
8		C		3.3658		-0.5768		-1.5871		C.ar		1		UNL1		-0.1522
9		C		4.6663		-0.1699		-1.7724		C.ar		1		UNL1		-0.2055
10		C		5.5973		-0.1690		-0.6977		C.ar		1		UNL1		0.1449
11		C		6.9461		0.2441		-0.8631		C.ar		1		UNL1		-0.1933
12		C		7.8237		0.2289		0.1976		C.ar		1		UNL1		-0.1343
13		C		7.3905		-0.2025		1.4754		C.ar		1		UNL1		-0.1355
14		C		6.0899		-0.6105		1.6694		C.ar		1		UNL1		-0.1893
15		C		5.1592		-0.6058		0.5958		C.ar		1		UNL1		0.1280
16		C		3.8099		-1.0172		0.7652		C.ar		1		UNL1		-0.2365
17		N		-0.5748		-1.2523		-0.0939		N.ar		1		UNL1		-0.5685
18		C		-1.6516		-0.4472		-0.0333		C.ar		1		UNL1		0.7137
19		N		-2.8401		-1.1571		-0.0326		N.pl3		1		UNL1		-0.7769
20		C		-4.1747		-0.7676		0.0124		C.ar		1		UNL1		0.3859
21		C		-4.6138		0.5692		0.0655		C.ar		1		UNL1		-0.1561
22		C		-5.9729		0.8513		0.1066		C.ar		1		UNL1		-0.1536
23		C		-6.9314		-0.1758		0.0964		C.ar		1		UNL1		0.1294
24		C		-8.3280		0.1300		0.1392		C.1		1		UNL1		0.2247
25		N		-9.4649		0.3795		0.1741		N.1		1		UNL1		-0.4885
26		C		-6.4923		-1.5111		0.0431		C.ar		1		UNL1		-0.1411
27		C		-5.1387		-1.7984		0.0020		C.ar		1		UNL1		-0.2057
28		N		-1.6672		0.8835		0.0204		N.ar		1		UNL1		-0.5946
29		H		1.3308		3.5564		-0.7486		H		1		UNL1		0.1702
30		H		1.2973		3.4958		1.0301		H		1		UNL1		0.1685
31		H		0.3673		4.7330		0.1611		H		1		UNL1		0.1674
32		H		-1.3975		3.2542		0.1559		H		1		UNL1		0.3374
33		H		1.7145		1.2314		-0.0203		H		1		UNL1		0.1535
34		H		2.6550		-0.5940		-2.4071		H		1		UNL1		0.1494
35		H		5.0007		0.1504		-2.7561		H		1		UNL1		0.1397
36		H		7.2753		0.5727		-1.8461		H		1		UNL1		0.1335
37		H		8.8532		0.5469		0.0582		H		1		UNL1		0.1345
38		H		8.0920		-0.2114		2.3051		H		1		UNL1		0.1353
39		H		5.7568		-0.9433		2.6495		H		1		UNL1		0.1357
40		H		3.4584		-1.3584		1.7344		H		1		UNL1		0.1468
41		H		-2.6671		-2.1534		-0.0742		H		1		UNL1		0.3479
42		H		-3.8817		1.3629		0.0734		H		1		UNL1		0.1727
43		H		-6.3026		1.8849		0.1472		H		1		UNL1		0.1521
44		H		-7.2192		-2.3169		0.0344		H		1		UNL1		0.1557
45		H		-4.8122		-2.8349		-0.0388		H		1		UNL1		0.1368
@<TRIPOS>BOND
1		35		9		1
2		34		8		1
3		36		11		1
4		9		8		ar
5		9		10		ar
6		8		7		ar
7		11		10		ar
8		11		12		ar
9		29		1		1
10		10		15		ar
11		7		6		1
12		7		16		ar
13		6		5		1
14		17		5		ar
15		17		18		ar
16		5		4		ar
17		41		19		1
18		45		27		1
19		4		33		1
20		4		3		ar
21		18		19		1
22		18		28		ar
23		19		20		1
24		27		20		ar
25		27		26		ar
26		20		21		ar
27		3		28		ar
28		3		2		1
29		44		26		1
30		26		23		ar
31		37		12		1
32		21		42		1
33		21		22		ar
34		2		1		1
35		2		32		1
36		23		22		ar
37		23		24		1
38		22		43		1
39		1		31		1
40		1		30		1
41		24		25		3
42		12		13		ar
43		15		16		ar
44		15		14		ar
45		16		40		1
46		13		14		ar
47		13		38		1
48		14		39		1

