@<TRIPOS>MOLECULE
WHQ-2014-SQER-761-64
 52 55 0 0 0
SMALL
MULLIKEN_CHARGES
****
Gaussian 16 #p B3LYP/6-31G* opt
@<TRIPOS>ATOM
1		C		0.0279		4.8324		0.5324		C.3		1		UNL1		-0.4446
2		C		-0.4159		4.2450		-0.8214		C.3		1		UNL1		-0.3516
3		C		-0.9764		2.8462		-0.7145		C.ar		1		UNL1		0.0404
4		C		-2.3370		2.5521		-0.4457		C.ar		1		UNL1		0.5275
5		N		-3.2548		3.5463		-0.2968		N.pl3		1		UNL1		-0.6493
6		C		-4.6503		3.3094		0.0280		C.3		1		UNL1		-0.2896
7		N		-2.8041		1.2895		-0.3325		N.ar		1		UNL1		-0.6000
8		C		-1.9090		0.3142		-0.4703		C.ar		1		UNL1		0.7127
9		N		-2.2952		-1.0103		-0.3696		N.pl3		1		UNL1		-0.7814
10		C		-3.5238		-1.6208		-0.1335		C.ar		1		UNL1		0.3843
11		C		-4.7320		-0.9263		0.0657		C.ar		1		UNL1		-0.1617
12		C		-5.9067		-1.6316		0.2930		C.ar		1		UNL1		-0.1568
13		C		-5.9183		-3.0359		0.3295		C.ar		1		UNL1		0.1305
14		C		-7.1362		-3.7486		0.5641		C.1		1		UNL1		0.2257
15		N		-8.1277		-4.3284		0.7548		N.1		1		UNL1		-0.4865
16		C		-4.7105		-3.7288		0.1310		C.ar		1		UNL1		-0.1411
17		C		-3.5364		-3.0311		-0.0961		C.ar		1		UNL1		-0.2052
18		N		-0.5919		0.4559		-0.7051		N.ar		1		UNL1		-0.5907
19		C		-0.1763		1.7113		-0.8136		C.ar		1		UNL1		0.5246
20		O		1.1581		1.9262		-1.0591		O.3		1		UNL1		-0.5773
21		C		2.0323		0.8584		-1.0352		C.ar		1		UNL1		0.3526
22		C		2.2823		0.1594		-2.2378		C.ar		1		UNL1		-0.1448
23		C		3.2230		-0.8381		-2.2716		C.ar		1		UNL1		-0.1995
24		C		3.9573		-1.1819		-1.1049		C.ar		1		UNL1		0.1526
25		C		4.9316		-2.2084		-1.1296		C.ar		1		UNL1		-0.2212
26		C		5.6455		-2.5390		0.0097		C.ar		1		UNL1		0.1393
27		C		6.6281		-3.5820		-0.0316		C.1		1		UNL1		0.2363
28		N		7.4267		-4.4277		-0.0585		N.1		1		UNL1		-0.4746
29		C		5.4024		-1.8411		1.2261		C.ar		1		UNL1		-0.1414
30		C		4.4631		-0.8409		1.2750		C.ar		1		UNL1		-0.1922
31		C		3.7133		-0.4779		0.1233		C.ar		1		UNL1		0.0992
32		C		2.7280		0.5507		0.1155		C.ar		1		UNL1		-0.0171
33		BR		2.3359		1.5360		1.6989		Br		1		UNL1		-0.0904
34		H		0.8039		4.2023		0.9783		H		1		UNL1		0.1734
35		H		0.4336		5.8429		0.4073		H		1		UNL1		0.1471
36		H		-0.8065		4.8865		1.2419		H		1		UNL1		0.1380
37		H		-1.1522		4.9084		-1.2969		H		1		UNL1		0.1305
38		H		0.4433		4.2287		-1.4987		H		1		UNL1		0.1705
39		H		-2.9158		4.4937		-0.2700		H		1		UNL1		0.3384
40		H		-4.7649		2.8067		0.9959		H		1		UNL1		0.1728
41		H		-5.1609		4.2745		0.0677		H		1		UNL1		0.1549
42		H		-5.1291		2.6903		-0.7372		H		1		UNL1		0.1797
43		H		-1.5060		-1.6327		-0.4869		H		1		UNL1		0.3462
44		H		-4.7289		0.1532		0.0402		H		1		UNL1		0.1882
45		H		-6.8343		-1.0887		0.4459		H		1		UNL1		0.1533
46		H		-4.7016		-4.8137		0.1566		H		1		UNL1		0.1572
47		H		-2.6091		-3.5788		-0.2480		H		1		UNL1		0.1363
48		H		1.7150		0.4378		-3.1194		H		1		UNL1		0.1575
49		H		3.4189		-1.3774		-3.1940		H		1		UNL1		0.1518
50		H		5.1160		-2.7395		-2.0585		H		1		UNL1		0.1637
51		H		5.9675		-2.1088		2.1127		H		1		UNL1		0.1634
52		H		4.2819		-0.3134		2.2042		H		1		UNL1		0.1685
@<TRIPOS>BOND
1		49		23		1
2		48		22		1
3		23		22		ar
4		23		24		ar
5		22		21		ar
6		50		25		1
7		38		2		1
8		37		2		1
9		25		24		ar
10		25		26		ar
11		24		31		ar
12		20		21		1
13		20		19		1
14		21		32		ar
15		2		3		1
16		2		1		1
17		19		3		ar
18		19		18		ar
19		42		6		1
20		3		4		ar
21		18		8		ar
22		43		9		1
23		8		9		1
24		8		7		ar
25		4		7		ar
26		4		5		1
27		9		10		1
28		5		39		1
29		5		6		1
30		47		17		1
31		10		17		ar
32		10		11		ar
33		17		16		ar
34		28		27		3
35		27		26		1
36		26		29		ar
37		6		41		1
38		6		40		1
39		44		11		1
40		11		12		ar
41		32		31		ar
42		32		33		1
43		31		30		ar
44		16		46		1
45		16		13		ar
46		12		13		ar
47		12		45		1
48		13		14		1
49		35		1		1
50		1		34		1
51		1		36		1
52		14		15		3
53		29		30		ar
54		29		51		1
55		30		52		1

