@<TRIPOS>MOLECULE
WHQ-2014-SQER-761-1
 43 46 0 0 0
SMALL
MULLIKEN_CHARGES
****
Gaussian 16 #p B3LYP/6-31G* opt
@<TRIPOS>ATOM
1		C		-3.0716		4.8343		0.3131		C.3		1		UNL1		-0.5115
2		C		-2.3112		3.5523		0.1031		C.ar		1		UNL1		0.3389
3		C		-2.9500		2.3731		-0.2750		C.ar		1		UNL1		-0.2577
4		C		-2.1269		1.2534		-0.4361		C.ar		1		UNL1		0.5802
5		O		-2.7295		0.0926		-0.7979		O.3		1		UNL1		-0.5707
6		C		-1.9596		-1.0608		-0.9913		C.ar		1		UNL1		0.2827
7		C		-1.3442		-1.2723		-2.2007		C.ar		1		UNL1		-0.1564
8		C		-0.6312		-2.4745		-2.4211		C.ar		1		UNL1		-0.1522
9		C		-0.5576		-3.4324		-1.4352		C.ar		1		UNL1		-0.1818
10		C		-1.1990		-3.2366		-0.1825		C.ar		1		UNL1		0.1203
11		C		-1.1479		-4.2094		0.8521		C.ar		1		UNL1		-0.1945
12		C		-1.7806		-3.9965		2.0555		C.ar		1		UNL1		-0.1296
13		C		-2.4994		-2.7973		2.2815		C.ar		1		UNL1		-0.1350
14		C		-2.5714		-1.8306		1.3041		C.ar		1		UNL1		-0.1840
15		C		-1.9236		-2.0219		0.0551		C.ar		1		UNL1		0.1151
16		N		-0.8147		1.2771		-0.2491		N.ar		1		UNL1		-0.5506
17		C		-0.3049		2.4646		0.1121		C.ar		1		UNL1		0.6938
18		N		1.0523		2.5857		0.3286		N.pl3		1		UNL1		-0.7714
19		C		2.1082		1.6786		0.2405		C.ar		1		UNL1		0.3804
20		C		1.9694		0.3273		-0.1285		C.ar		1		UNL1		-0.1638
21		C		3.0904		-0.4909		-0.1872		C.ar		1		UNL1		-0.1578
22		C		4.3703		0.0025		0.1153		C.ar		1		UNL1		0.1308
23		C		5.5156		-0.8524		0.0493		C.1		1		UNL1		0.2263
24		N		6.4478		-1.5479		-0.0050		N.1		1		UNL1		-0.4873
25		C		4.5070		1.3528		0.4839		C.ar		1		UNL1		-0.1413
26		C		3.3935		2.1736		0.5446		C.ar		1		UNL1		-0.2047
27		N		-0.9830		3.6077		0.2997		N.ar		1		UNL1		-0.5521
28		H		-2.9254		5.1950		1.3373		H		1		UNL1		0.1788
29		H		-4.1422		4.7054		0.1328		H		1		UNL1		0.1584
30		H		-2.6901		5.6121		-0.3576		H		1		UNL1		0.1790
31		H		-4.0181		2.3098		-0.4400		H		1		UNL1		0.1502
32		H		-1.4087		-0.5141		-2.9742		H		1		UNL1		0.1432
33		H		-0.1435		-2.6339		-3.3784		H		1		UNL1		0.1409
34		H		-0.0111		-4.3565		-1.6048		H		1		UNL1		0.1362
35		H		-0.5974		-5.1300		0.6740		H		1		UNL1		0.1361
36		H		-1.7323		-4.7496		2.8370		H		1		UNL1		0.1357
37		H		-2.9982		-2.6420		3.2342		H		1		UNL1		0.1348
38		H		-3.1287		-0.9155		1.4729		H		1		UNL1		0.1423
39		H		1.2968		3.5300		0.5990		H		1		UNL1		0.3461
40		H		0.9916		-0.0663		-0.3632		H		1		UNL1		0.2021
41		H		2.9725		-1.5315		-0.4726		H		1		UNL1		0.1578
42		H		5.4887		1.7501		0.7211		H		1		UNL1		0.1563
43		H		3.5119		3.2161		0.8311		H		1		UNL1		0.1358
@<TRIPOS>BOND
1		33		8		1
2		32		7		1
3		8		7		ar
4		8		9		ar
5		7		6		ar
6		34		9		1
7		9		10		ar
8		6		5		1
9		6		15		ar
10		5		4		1
11		41		21		1
12		31		3		1
13		4		3		ar
14		4		16		ar
15		40		20		1
16		30		1		1
17		3		2		ar
18		16		17		ar
19		21		20		ar
20		21		22		ar
21		10		15		ar
22		10		11		ar
23		20		19		ar
24		24		23		3
25		23		22		1
26		15		14		ar
27		2		27		ar
28		2		1		1
29		17		27		ar
30		17		18		1
31		22		25		ar
32		29		1		1
33		19		18		1
34		19		26		ar
35		1		28		1
36		18		39		1
37		25		26		ar
38		25		42		1
39		26		43		1
40		35		11		1
41		11		12		ar
42		14		38		1
43		14		13		ar
44		12		13		ar
45		12		36		1
46		13		37		1

