@<TRIPOS>MOLECULE
WHQ-2013-BMC-6477-3-7l
 50 52 0 0 0
SMALL
MULLIKEN_CHARGES
****
Gaussian 16 #p B3LYP/6-31G* opt
@<TRIPOS>ATOM
1		C		-7.4774		0.4284		1.9184		C.3		1		UNL1		-0.2202
2		O		-6.9424		0.5716		0.6099		O.3		1		UNL1		-0.5015
3		C		-5.8515		-0.1666		0.2703		C.ar		1		UNL1		0.3814
4		C		-5.3559		0.0358		-1.0249		C.ar		1		UNL1		-0.1584
5		C		-4.2430		-0.6730		-1.4631		C.ar		1		UNL1		-0.2008
6		C		-3.5924		-1.5980		-0.6290		C.ar		1		UNL1		0.1338
7		C		-2.4122		-2.3881		-1.1501		C.3		1		UNL1		-0.5464
8		S		-0.8959		-2.4602		-0.0879		S.3		1		UNL1		0.1945
9		C		-0.2167		-0.8185		-0.1682		C.ar		1		UNL1		0.3259
10		N		1.0208		-0.6956		0.2115		N.ar		1		UNL1		-0.5036
11		C		1.5627		0.5713		0.2037		C.ar		1		UNL1		0.1159
12		C		2.9467		0.6168		0.8285		C.2		1		UNL1		0.3711
13		O		3.1590		1.3961		1.7467		O.2		1		UNL1		-0.4563
14		C		4.0193		-0.2999		0.3311		C.ar		1		UNL1		0.0814
15		C		3.8885		-1.0748		-0.8311		C.ar		1		UNL1		-0.1504
16		C		4.9520		-1.8660		-1.2658		C.ar		1		UNL1		-0.1401
17		C		6.1491		-1.8999		-0.5503		C.ar		1		UNL1		-0.1825
18		C		6.2594		-1.1236		0.6008		C.ar		1		UNL1		0.3821
19		F		7.4169		-1.1532		1.2939		F		1		UNL1		-0.2955
20		C		5.2242		-0.3226		1.0509		C.ar		1		UNL1		-0.2317
21		C		0.9256		1.7062		-0.2466		C.ar		1		UNL1		0.0729
22		C		1.5614		3.0861		-0.3002		C.3		1		UNL1		-0.1424
23		C		1.5395		3.6761		-1.7253		C.3		1		UNL1		-0.4580
24		C		0.9107		4.0407		0.7211		C.3		1		UNL1		-0.4559
25		C		-0.4641		1.5638		-0.6786		C.ar		1		UNL1		0.5766
26		O		-1.2210		2.4439		-1.0724		O.2		1		UNL1		-0.5195
27		N		-0.9598		0.2388		-0.5871		N.ar		1		UNL1		-0.6497
28		C		-4.0973		-1.7865		0.6624		C.ar		1		UNL1		-0.1709
29		C		-5.2136		-1.0857		1.1164		C.ar		1		UNL1		-0.1921
30		H		-7.8250		-0.5967		2.1014		H		1		UNL1		0.1551
31		H		-6.7428		0.7052		2.6854		H		1		UNL1		0.1589
32		H		-8.3266		1.1115		1.9686		H		1		UNL1		0.1770
33		H		-5.8535		0.7549		-1.6672		H		1		UNL1		0.1529
34		H		-3.8783		-0.5087		-2.4752		H		1		UNL1		0.1419
35		H		-2.1226		-2.0471		-2.1488		H		1		UNL1		0.1936
36		H		-2.6595		-3.4524		-1.2418		H		1		UNL1		0.2078
37		H		2.9587		-1.0683		-1.3863		H		1		UNL1		0.1516
38		H		4.8488		-2.4644		-2.1663		H		1		UNL1		0.1439
39		H		6.9887		-2.5109		-0.8658		H		1		UNL1		0.1527
40		H		5.3352		0.2830		1.9431		H		1		UNL1		0.1770
41		H		2.6085		2.9739		-0.0083		H		1		UNL1		0.1476
42		H		2.0747		4.6329		-1.7349		H		1		UNL1		0.1400
43		H		2.0369		3.0078		-2.4385		H		1		UNL1		0.1322
44		H		0.5163		3.8476		-2.0671		H		1		UNL1		0.1813
45		H		-0.1514		4.1837		0.5034		H		1		UNL1		0.1706
46		H		1.4048		5.0189		0.6845		H		1		UNL1		0.1386
47		H		1.0175		3.6440		1.7359		H		1		UNL1		0.1569
48		H		-1.9527		0.1463		-0.7875		H		1		UNL1		0.3675
49		H		-3.6055		-2.4856		1.3338		H		1		UNL1		0.1505
50		H		-5.5731		-1.2577		2.1243		H		1		UNL1		0.1426
@<TRIPOS>BOND
1		34		5		1
2		43		23		1
3		38		16		1
4		35		7		1
5		44		23		1
6		42		23		1
7		23		22		1
8		33		4		1
9		5		4		ar
10		5		6		ar
11		37		15		1
12		16		15		ar
13		16		17		ar
14		36		7		1
15		7		6		1
16		7		8		1
17		26		25		2
18		4		3		ar
19		39		17		1
20		15		14		ar
21		48		27		1
22		25		27		ar
23		25		21		ar
24		6		28		ar
25		27		9		ar
26		17		18		ar
27		22		21		1
28		22		41		1
29		22		24		1
30		21		11		ar
31		9		8		1
32		9		10		ar
33		11		10		ar
34		11		12		1
35		3		2		1
36		3		29		ar
37		14		12		1
38		14		20		ar
39		45		24		1
40		18		20		ar
41		18		19		1
42		2		1		1
43		28		29		ar
44		28		49		1
45		46		24		1
46		24		47		1
47		12		13		2
48		20		40		1
49		29		50		1
50		1		32		1
51		1		30		1
52		1		31		1

