@<TRIPOS>MOLECULE
WHQ-2014-SQER-761-30
 40 43 0 0 0
SMALL
MULLIKEN_CHARGES
****
Gaussian 16 #p B3LYP/6-31G* opt
@<TRIPOS>ATOM
1		N		-7.9288		-3.3971		0.0192		N.1		1		UNL1		-0.4832
2		C		-7.0955		-2.5846		-0.0036		C.1		1		UNL1		0.2287
3		C		-6.0725		-1.5842		-0.0315		C.ar		1		UNL1		0.1325
4		C		-6.4094		-0.2233		-0.1393		C.ar		1		UNL1		-0.1403
5		C		-5.4138		0.7390		-0.1656		C.ar		1		UNL1		-0.2049
6		C		-4.0542		0.3769		-0.0856		C.ar		1		UNL1		0.3805
7		N		-3.1277		1.4229		-0.1207		N.pl3		1		UNL1		-0.7673
8		C		-1.7546		1.4444		-0.0642		C.ar		1		UNL1		0.7006
9		N		-1.2381		2.6933		-0.1305		N.ar		1		UNL1		-0.4952
10		C		0.0769		2.7538		-0.0834		C.ar		1		UNL1		0.1297
11		CL		0.7915		4.3550		-0.1717		Cl		1		UNL1		0.0164
12		C		0.9240		1.6533		0.0285		C.ar		1		UNL1		-0.2109
13		C		0.2592		0.4226		0.0929		C.ar		1		UNL1		0.5450
14		O		0.8933		-0.7688		0.1951		O.3		1		UNL1		-0.5305
15		C		2.2816		-0.8075		0.3517		C.ar		1		UNL1		0.3114
16		C		2.8291		-0.6091		1.6407		C.ar		1		UNL1		-0.1521
17		C		4.1886		-0.7233		1.8165		C.ar		1		UNL1		-0.2030
18		C		5.0470		-1.0413		0.7289		C.ar		1		UNL1		0.1463
19		C		6.4532		-1.1665		0.8859		C.ar		1		UNL1		-0.1918
20		C		7.2565		-1.4799		-0.1872		C.ar		1		UNL1		-0.1328
21		C		6.6888		-1.6837		-1.4689		C.ar		1		UNL1		-0.1343
22		C		5.3295		-1.5707		-1.6554		C.ar		1		UNL1		-0.1876
23		C		4.4731		-1.2475		-0.5690		C.ar		1		UNL1		0.1272
24		C		3.0671		-1.1208		-0.7295		C.ar		1		UNL1		-0.2294
25		N		-1.0669		0.3063		0.0469		N.ar		1		UNL1		-0.5320
26		C		-3.7136		-0.9838		0.0223		C.ar		1		UNL1		-0.1616
27		C		-4.7175		-1.9444		0.0482		C.ar		1		UNL1		-0.1538
28		H		-7.4520		0.0709		-0.2018		H		1		UNL1		0.1596
29		H		-5.6857		1.7887		-0.2492		H		1		UNL1		0.1398
30		H		-3.5124		2.3557		-0.2027		H		1		UNL1		0.3532
31		H		1.9990		1.7488		0.0571		H		1		UNL1		0.1831
32		H		2.1668		-0.3811		2.4698		H		1		UNL1		0.1516
33		H		4.6227		-0.5760		2.8021		H		1		UNL1		0.1447
34		H		6.8853		-1.0103		1.8713		H		1		UNL1		0.1370
35		H		8.3308		-1.5728		-0.0547		H		1		UNL1		0.1380
36		H		7.3333		-1.9312		-2.3078		H		1		UNL1		0.1387
37		H		4.8927		-1.7275		-2.6385		H		1		UNL1		0.1383
38		H		2.6098		-1.2803		-1.7015		H		1		UNL1		0.1502
39		H		-2.6742		-1.2716		0.0842		H		1		UNL1		0.1973
40		H		-4.4490		-2.9927		0.1315		H		1		UNL1		0.1607
@<TRIPOS>BOND
1		37		22		1
2		36		21		1
3		38		24		1
4		22		21		ar
5		22		23		ar
6		21		20		ar
7		24		23		ar
8		24		15		ar
9		23		18		ar
10		29		5		1
11		30		7		1
12		28		4		1
13		20		35		1
14		20		19		ar
15		11		10		1
16		5		4		ar
17		5		6		ar
18		4		3		ar
19		9		10		ar
20		9		8		ar
21		7		6		1
22		7		8		1
23		6		26		ar
24		10		12		ar
25		8		25		ar
26		3		2		1
27		3		27		ar
28		2		1		3
29		26		27		ar
30		26		39		1
31		12		31		1
32		12		13		ar
33		25		13		ar
34		27		40		1
35		13		14		1
36		14		15		1
37		15		16		ar
38		18		19		ar
39		18		17		ar
40		19		34		1
41		16		17		ar
42		16		32		1
43		17		33		1

