@<TRIPOS>MOLECULE
WHQ-2014-MCC-5468-3-1d
 46 48 0 0 0
SMALL
MULLIKEN_CHARGES
****
Gaussian 16 #p B3LYP/6-31G* opt
@<TRIPOS>ATOM
1		C		8.6505		-1.0415		0.6569		C.3		1		UNL1		-0.2184
2		O		7.7439		-1.3574		-0.3893		O.3		1		UNL1		-0.5038
3		C		6.4325		-1.0237		-0.2321		C.ar		1		UNL1		0.3796
4		C		5.9009		-0.3856		0.8955		C.ar		1		UNL1		-0.1943
5		C		4.5362		-0.0957		0.9433		C.ar		1		UNL1		-0.1717
6		C		3.6805		-0.4326		-0.1093		C.ar		1		UNL1		0.1400
7		C		2.2117		-0.1180		-0.0411		C.3		1		UNL1		-0.5016
8		S		1.9078		1.5475		-0.8177		S.3		1		UNL1		0.1611
9		C		0.2099		1.8144		-0.3911		C.ar		1		UNL1		0.3250
10		N		-0.4784		0.9378		0.2814		N.ar		1		UNL1		-0.5224
11		C		-1.7778		1.2553		0.5982		C.ar		1		UNL1		0.2540
12		C		-2.5067		0.1664		1.3944		C.3		1		UNL1		-0.3285
13		C		-1.6013		-0.4603		2.3736		C.1		1		UNL1		0.3803
14		N		-0.9122		-0.9630		3.1604		N.1		1		UNL1		-0.4738
15		C		-3.1413		-0.8887		0.4768		C.ar		1		UNL1		0.1739
16		C		-2.3479		-1.6951		-0.3482		C.ar		1		UNL1		-0.1594
17		C		-2.9456		-2.6364		-1.1837		C.ar		1		UNL1		-0.1297
18		C		-4.3334		-2.7893		-1.2114		C.ar		1		UNL1		-0.1247
19		C		-5.1112		-1.9839		-0.3836		C.ar		1		UNL1		-0.0674
20		CL		-6.8601		-2.1605		-0.3951		Cl		1		UNL1		-0.0150
21		C		-4.5309		-1.0375		0.4614		C.ar		1		UNL1		-0.1826
22		C		-2.4127		2.4151		0.2341		C.ar		1		UNL1		0.0673
23		C		-3.8409		2.7655		0.5620		C.3		1		UNL1		-0.5572
24		C		-1.6543		3.3991		-0.5351		C.ar		1		UNL1		0.5806
25		O		-2.0520		4.4827		-0.9409		O.2		1		UNL1		-0.5178
26		N		-0.3233		3.0018		-0.7961		N.ar		1		UNL1		-0.6499
27		C		4.2316		-1.0705		-1.2329		C.ar		1		UNL1		-0.1692
28		C		5.5860		-1.3650		-1.2984		C.ar		1		UNL1		-0.1704
29		H		8.6966		0.0404		0.8372		H		1		UNL1		0.1552
30		H		9.6276		-1.3931		0.3212		H		1		UNL1		0.1738
31		H		8.3821		-1.5526		1.5907		H		1		UNL1		0.1558
32		H		6.5312		-0.1160		1.7349		H		1		UNL1		0.1383
33		H		4.1332		0.3983		1.8241		H		1		UNL1		0.1414
34		H		1.6102		-0.8455		-0.5899		H		1		UNL1		0.1989
35		H		1.8370		-0.0659		0.9823		H		1		UNL1		0.2253
36		H		-3.3110		0.6380		1.9680		H		1		UNL1		0.1976
37		H		-1.2694		-1.5796		-0.3305		H		1		UNL1		0.1668
38		H		-2.3278		-3.2625		-1.8211		H		1		UNL1		0.1476
39		H		-4.8039		-3.5210		-1.8592		H		1		UNL1		0.1605
40		H		-5.1622		-0.4317		1.1036		H		1		UNL1		0.1577
41		H		-4.0676		3.7509		0.1503		H		1		UNL1		0.2045
42		H		-4.5467		2.0449		0.1324		H		1		UNL1		0.1709
43		H		-4.0182		2.8023		1.6446		H		1		UNL1		0.1647
44		H		0.2316		3.6772		-1.3125		H		1		UNL1		0.3580
45		H		3.5871		-1.3436		-2.0654		H		1		UNL1		0.1347
46		H		6.0148		-1.8629		-2.1623		H		1		UNL1		0.1440
@<TRIPOS>BOND
1		46		28		1
2		45		27		1
3		39		18		1
4		38		17		1
5		44		26		1
6		28		27		ar
7		28		3		ar
8		27		6		ar
9		18		17		ar
10		18		19		ar
11		17		16		ar
12		25		24		2
13		8		9		1
14		8		7		1
15		26		24		ar
16		26		9		ar
17		34		7		1
18		24		22		ar
19		20		19		1
20		9		10		ar
21		2		3		1
22		2		1		1
23		19		21		ar
24		16		37		1
25		16		15		ar
26		3		4		ar
27		6		7		1
28		6		5		ar
29		7		35		1
30		42		23		1
31		41		23		1
32		22		23		1
33		22		11		ar
34		10		11		ar
35		30		1		1
36		21		15		ar
37		21		40		1
38		15		12		1
39		23		43		1
40		11		12		1
41		1		29		1
42		1		31		1
43		4		5		ar
44		4		32		1
45		5		33		1
46		12		36		1
47		12		13		1
48		13		14		3

