@<TRIPOS>MOLECULE
WHQ-2014-SQER-761-55
 46 49 0 0 0
SMALL
MULLIKEN_CHARGES
****
Gaussian 16 #p B3LYP/6-31G* opt
@<TRIPOS>ATOM
1		C		-2.9284		5.3330		-0.6597		C.3		1		UNL1		-0.3014
2		N		-3.1385		3.9087		-0.5087		N.pl3		1		UNL1		-0.6375
3		C		-2.1603		3.0018		-0.2595		C.ar		1		UNL1		0.5732
4		C		-0.8079		3.3608		-0.1369		C.ar		1		UNL1		-0.2794
5		C		0.0660		2.3064		0.1154		C.ar		1		UNL1		0.5750
6		O		1.3782		2.6456		0.2703		O.3		1		UNL1		-0.5716
7		C		2.3863		1.6965		0.3417		C.ar		1		UNL1		0.3645
8		C		3.3087		1.8687		1.4006		C.ar		1		UNL1		-0.1657
9		C		4.3970		1.0358		1.5018		C.ar		1		UNL1		-0.1968
10		C		4.6090		-0.0026		0.5550		C.ar		1		UNL1		0.1414
11		C		5.7186		-0.8774		0.6371		C.ar		1		UNL1		-0.2137
12		C		5.9017		-1.8779		-0.3040		C.ar		1		UNL1		0.1297
13		C		7.0291		-2.7578		-0.2096		C.1		1		UNL1		0.2348
14		N		7.9419		-3.4761		-0.1391		N.1		1		UNL1		-0.4792
15		C		4.9692		-2.0367		-1.3711		C.ar		1		UNL1		-0.1429
16		C		3.8862		-1.1994		-1.4673		C.ar		1		UNL1		-0.1965
17		C		3.6687		-0.1634		-0.5161		C.ar		1		UNL1		0.1355
18		C		2.5581		0.7120		-0.6050		C.ar		1		UNL1		-0.2129
19		N		-0.3022		1.0396		0.2381		N.ar		1		UNL1		-0.5879
20		C		-1.6282		0.8159		0.1028		C.ar		1		UNL1		0.7164
21		N		-1.9533		-0.5197		0.2480		N.pl3		1		UNL1		-0.7783
22		C		-3.1629		-1.2092		0.1978		C.ar		1		UNL1		0.3845
23		C		-4.4101		-0.6110		-0.0620		C.ar		1		UNL1		-0.1555
24		C		-5.5589		-1.3911		-0.0936		C.ar		1		UNL1		-0.1532
25		C		-5.5048		-2.7768		0.1296		C.ar		1		UNL1		0.1307
26		C		-6.6966		-3.5674		0.0935		C.1		1		UNL1		0.2264
27		N		-7.6668		-4.2104		0.0639		N.1		1		UNL1		-0.4853
28		C		-4.2580		-3.3736		0.3890		C.ar		1		UNL1		-0.1406
29		C		-3.1095		-2.6008		0.4218		C.ar		1		UNL1		-0.2060
30		N		-2.5750		1.7165		-0.1391		N.ar		1		UNL1		-0.5931
31		H		-2.5007		5.7799		0.2476		H		1		UNL1		0.1703
32		H		-2.2617		5.5564		-1.5028		H		1		UNL1		0.1707
33		H		-3.8920		5.8086		-0.8527		H		1		UNL1		0.1699
34		H		-4.0729		3.5315		-0.5643		H		1		UNL1		0.3394
35		H		-0.4462		4.3755		-0.2263		H		1		UNL1		0.1484
36		H		3.1340		2.6655		2.1161		H		1		UNL1		0.1521
37		H		5.1087		1.1634		2.3131		H		1		UNL1		0.1472
38		H		6.4319		-0.7595		1.4475		H		1		UNL1		0.1600
39		H		5.1293		-2.8246		-2.0997		H		1		UNL1		0.1585
40		H		3.1759		-1.3208		-2.2808		H		1		UNL1		0.1451
41		H		1.8447		0.5961		-1.4127		H		1		UNL1		0.1519
42		H		-1.1321		-1.0780		0.4432		H		1		UNL1		0.3475
43		H		-4.4581		0.4540		-0.2336		H		1		UNL1		0.1737
44		H		-6.5173		-0.9224		-0.2945		H		1		UNL1		0.1545
45		H		-4.1986		-4.4429		0.5640		H		1		UNL1		0.1583
46		H		-2.1515		-3.0742		0.6243		H		1		UNL1		0.1377
@<TRIPOS>BOND
1		40		16		1
2		39		15		1
3		32		1		1
4		16		15		ar
5		16		17		ar
6		41		18		1
7		15		12		ar
8		33		1		1
9		1		2		1
10		1		31		1
11		18		17		ar
12		18		7		ar
13		34		2		1
14		17		10		ar
15		2		3		1
16		12		13		1
17		12		11		ar
18		44		24		1
19		3		30		ar
20		3		4		ar
21		43		23		1
22		35		4		1
23		13		14		3
24		30		20		ar
25		4		5		ar
26		24		23		ar
27		24		25		ar
28		23		22		ar
29		27		26		3
30		26		25		1
31		20		19		ar
32		20		21		1
33		5		19		ar
34		5		6		1
35		25		28		ar
36		22		21		1
37		22		29		ar
38		21		42		1
39		6		7		1
40		7		8		ar
41		28		29		ar
42		28		45		1
43		29		46		1
44		10		11		ar
45		10		9		ar
46		11		38		1
47		8		9		ar
48		8		36		1
49		9		37		1

