@<TRIPOS>MOLECULE
WHQ-2014-SQER-761-56
 48 51 0 0 0
SMALL
MULLIKEN_CHARGES
****
Gaussian 16 #p B3LYP/6-31G* opt
@<TRIPOS>ATOM
1		C		-3.5354		3.8926		0.1104		C.3		1		UNL1		-0.2879
2		N		-2.0859		3.9661		0.0842		N.pl3		1		UNL1		-0.6490
3		C		-1.2738		2.8753		0.0387		C.ar		1		UNL1		0.5276
4		N		-1.8840		1.6707		0.0388		N.ar		1		UNL1		-0.6013
5		C		-1.0776		0.6117		-0.0005		C.ar		1		UNL1		0.7074
6		N		-1.6052		-0.6691		-0.0010		N.pl3		1		UNL1		-0.7808
7		C		-2.9083		-1.1536		0.0329		C.ar		1		UNL1		0.3850
8		C		-3.0668		-2.5560		0.0359		C.ar		1		UNL1		-0.2055
9		C		-4.3250		-3.1325		0.0659		C.ar		1		UNL1		-0.1415
10		C		-5.4747		-2.3225		0.0941		C.ar		1		UNL1		0.1296
11		C		-6.7784		-2.9099		0.1248		C.1		1		UNL1		0.2246
12		N		-7.8399		-3.3879		0.1496		N.1		1		UNL1		-0.4885
13		C		-5.3182		-0.9262		0.0913		C.ar		1		UNL1		-0.1568
14		C		-4.0588		-0.3420		0.0612		C.ar		1		UNL1		-0.1625
15		N		0.2649		0.6180		-0.0393		N.ar		1		UNL1		-0.5848
16		C		0.8310		1.8218		-0.0410		C.ar		1		UNL1		0.5122
17		O		2.1930		1.8984		-0.0578		O.3		1		UNL1		-0.5815
18		C		2.9643		0.7538		-0.2492		C.ar		1		UNL1		0.3670
19		C		2.9001		0.0436		-1.4722		C.ar		1		UNL1		-0.1366
20		C		3.7487		-1.0169		-1.6807		C.ar		1		UNL1		-0.2110
21		C		4.6942		-1.4111		-0.6942		C.ar		1		UNL1		0.1459
22		C		5.5831		-2.5016		-0.8864		C.ar		1		UNL1		-0.1942
23		C		6.4889		-2.8546		0.0889		C.ar		1		UNL1		-0.1351
24		C		6.5463		-2.1291		1.3038		C.ar		1		UNL1		-0.1363
25		C		5.6991		-1.0654		1.5208		C.ar		1		UNL1		-0.1898
26		C		4.7528		-0.6767		0.5351		C.ar		1		UNL1		0.1288
27		C		3.8629		0.4134		0.7305		C.ar		1		UNL1		-0.2439
28		C		0.1328		3.0292		-0.0056		C.ar		1		UNL1		0.0559
29		C		0.7984		4.3789		-0.0086		C.3		1		UNL1		-0.5616
30		H		-3.9305		3.4059		-0.7888		H		1		UNL1		0.1737
31		H		-3.9298		4.9102		0.1620		H		1		UNL1		0.1532
32		H		-3.8881		3.3332		0.9836		H		1		UNL1		0.1773
33		H		-1.6515		4.8739		0.0618		H		1		UNL1		0.3371
34		H		-0.8714		-1.3658		-0.0224		H		1		UNL1		0.3473
35		H		-2.1859		-3.1935		0.0148		H		1		UNL1		0.1363
36		H		-4.4276		-4.2130		0.0680		H		1		UNL1		0.1555
37		H		-6.2000		-0.2931		0.1130		H		1		UNL1		0.1519
38		H		-3.9445		0.7319		0.0593		H		1		UNL1		0.1875
39		H		2.1825		0.3467		-2.2266		H		1		UNL1		0.1420
40		H		3.7078		-1.5685		-2.6169		H		1		UNL1		0.1351
41		H		5.5362		-3.0556		-1.8212		H		1		UNL1		0.1306
42		H		7.1635		-3.6914		-0.0703		H		1		UNL1		0.1312
43		H		7.2646		-2.4161		2.0671		H		1		UNL1		0.1318
44		H		5.7427		-0.5077		2.4534		H		1		UNL1		0.1316
45		H		3.8927		0.9850		1.6533		H		1		UNL1		0.1389
46		H		0.5611		4.9542		0.8981		H		1		UNL1		0.1565
47		H		1.8831		4.2727		-0.0551		H		1		UNL1		0.1930
48		H		0.4889		4.9857		-0.8721		H		1		UNL1		0.1543
@<TRIPOS>BOND
1		40		20		1
2		39		19		1
3		41		22		1
4		20		19		ar
5		20		21		ar
6		19		18		ar
7		22		21		ar
8		22		23		ar
9		48		29		1
10		30		1		1
11		21		26		ar
12		18		17		1
13		18		27		ar
14		42		23		1
15		17		16		1
16		47		29		1
17		16		15		ar
18		16		28		ar
19		15		5		ar
20		34		6		1
21		29		28		1
22		29		46		1
23		28		3		ar
24		6		5		1
25		6		7		1
26		5		4		ar
27		35		8		1
28		7		8		ar
29		7		14		ar
30		8		9		ar
31		3		4		ar
32		3		2		1
33		38		14		1
34		14		13		ar
35		33		2		1
36		9		36		1
37		9		10		ar
38		2		1		1
39		23		24		ar
40		13		10		ar
41		13		37		1
42		10		11		1
43		1		31		1
44		1		32		1
45		11		12		3
46		26		27		ar
47		26		25		ar
48		27		45		1
49		24		25		ar
50		24		43		1
51		25		44		1

