@<TRIPOS>MOLECULE
WHQ-2014-SQER-761-69
 45 48 0 0 0
SMALL
MULLIKEN_CHARGES
****
Gaussian 16 #p B3LYP/6-31G* opt
@<TRIPOS>ATOM
1		C		1.9765		3.4886		-0.2350		C.3		1		UNL1		-0.2230
2		O		1.6250		2.1400		-0.5238		O.3		1		UNL1		-0.5066
3		C		2.5912		1.1948		-0.4408		C.ar		1		UNL1		0.3806
4		C		3.9071		1.4082		-0.0871		C.ar		1		UNL1		-0.2870
5		C		4.8352		0.3301		-0.0454		C.ar		1		UNL1		0.1503
6		C		6.1895		0.5317		0.3129		C.ar		1		UNL1		-0.2216
7		C		7.0789		-0.5321		0.3450		C.ar		1		UNL1		0.1343
8		C		8.4471		-0.3092		0.7113		C.1		1		UNL1		0.2356
9		N		9.5582		-0.1337		1.0087		N.1		1		UNL1		-0.4769
10		C		6.6428		-1.8467		0.0162		C.ar		1		UNL1		-0.1469
11		C		5.3316		-2.0618		-0.3346		C.ar		1		UNL1		-0.1956
12		C		4.3989		-0.9929		-0.3748		C.ar		1		UNL1		0.1442
13		C		3.0374		-1.1890		-0.7290		C.ar		1		UNL1		-0.2540
14		C		2.1622		-0.1359		-0.7559		C.ar		1		UNL1		0.2958
15		O		0.8695		-0.3399		-1.2042		O.3		1		UNL1		-0.5289
16		C		-0.1791		-0.2549		-0.3379		C.ar		1		UNL1		0.5589
17		C		-0.0333		-0.1927		1.0576		C.ar		1		UNL1		-0.2136
18		C		-1.2210		-0.1472		1.7710		C.ar		1		UNL1		0.0657
19		N		-2.4356		-0.1627		1.2056		N.ar		1		UNL1		-0.4843
20		C		-2.4372		-0.2318		-0.1321		C.ar		1		UNL1		0.6990
21		N		-3.6273		-0.2593		-0.8272		N.pl3		1		UNL1		-0.7664
22		C		-4.9601		-0.2287		-0.4146		C.ar		1		UNL1		0.3822
23		C		-5.9367		-0.2714		-1.4307		C.ar		1		UNL1		-0.2057
24		C		-7.2867		-0.2455		-1.1232		C.ar		1		UNL1		-0.1405
25		C		-7.7045		-0.1756		0.2177		C.ar		1		UNL1		0.1312
26		C		-9.0974		-0.1478		0.5436		C.1		1		UNL1		0.2273
27		N		-10.2311		-0.1248		0.8076		N.1		1		UNL1		-0.4848
28		C		-6.7317		-0.1334		1.2300		C.ar		1		UNL1		-0.1534
29		C		-5.3758		-0.1591		0.9280		C.ar		1		UNL1		-0.1596
30		N		-1.3562		-0.2797		-0.9361		N.ar		1		UNL1		-0.5468
31		H		2.3306		3.5944		0.7981		H		1		UNL1		0.1605
32		H		1.0621		4.0675		-0.3693		H		1		UNL1		0.1854
33		H		2.7472		3.8526		-0.9254		H		1		UNL1		0.1641
34		H		4.2598		2.4040		0.1565		H		1		UNL1		0.1493
35		H		6.5338		1.5304		0.5645		H		1		UNL1		0.1579
36		H		7.3537		-2.6654		0.0465		H		1		UNL1		0.1602
37		H		4.9931		-3.0631		-0.5871		H		1		UNL1		0.1487
38		H		2.6752		-2.1780		-0.9927		H		1		UNL1		0.1579
39		H		0.9321		-0.1889		1.5458		H		1		UNL1		0.1571
40		H		-1.2058		-0.0981		2.8582		H		1		UNL1		0.1567
41		H		-3.4727		-0.3106		-1.8263		H		1		UNL1		0.3498
42		H		-5.6255		-0.3255		-2.4714		H		1		UNL1		0.1379
43		H		-8.0258		-0.2790		-1.9170		H		1		UNL1		0.1581
44		H		-7.0456		-0.0798		2.2677		H		1		UNL1		0.1578
45		H		-4.6331		-0.1263		1.7118		H		1		UNL1		0.1891
@<TRIPOS>BOND
1		42		23		1
2		43		24		1
3		41		21		1
4		23		24		ar
5		23		22		ar
6		15		14		1
7		15		16		1
8		24		25		ar
9		38		13		1
10		30		16		ar
11		30		20		ar
12		33		1		1
13		21		22		1
14		21		20		1
15		14		13		ar
16		14		3		ar
17		13		12		ar
18		37		11		1
19		2		3		1
20		2		1		1
21		3		4		ar
22		22		29		ar
23		12		11		ar
24		12		5		ar
25		32		1		1
26		16		17		ar
27		11		10		ar
28		1		31		1
29		20		19		ar
30		4		5		ar
31		4		34		1
32		5		6		ar
33		10		36		1
34		10		7		ar
35		25		26		1
36		25		28		ar
37		6		7		ar
38		6		35		1
39		7		8		1
40		26		27		3
41		8		9		3
42		29		28		ar
43		29		45		1
44		17		39		1
45		17		18		ar
46		19		18		ar
47		28		44		1
48		18		40		1

