@<TRIPOS>MOLECULE
WHQ-2013-BMC-6477-3-7e
 44 46 0 0 0
SMALL
MULLIKEN_CHARGES
****
Gaussian 16 #p B3LYP/6-31G* opt
@<TRIPOS>ATOM
1		C		-7.3903		1.3680		0.4501		C.3		1		UNL1		-0.2217
2		O		-6.6470		0.4294		1.2161		O.3		1		UNL1		-0.5018
3		C		-5.5766		-0.1750		0.6349		C.ar		1		UNL1		0.3809
4		C		-4.8627		-1.0677		1.4545		C.ar		1		UNL1		-0.1686
5		C		-3.7497		-1.7309		0.9645		C.ar		1		UNL1		-0.1651
6		C		-3.3123		-1.5342		-0.3579		C.ar		1		UNL1		0.1418
7		C		-2.1227		-2.2788		-0.9188		C.3		1		UNL1		-0.5473
8		S		-0.5325		-2.1873		0.0324		S.3		1		UNL1		0.1931
9		C		0.0363		-0.5173		-0.2029		C.ar		1		UNL1		0.3210
10		N		1.2928		-0.3026		0.0451		N.ar		1		UNL1		-0.5090
11		C		1.7584		0.9904		-0.0711		C.ar		1		UNL1		0.1469
12		C		3.2011		1.1758		0.3577		C.2		1		UNL1		0.3581
13		O		3.5447		2.2189		0.8921		O.2		1		UNL1		-0.4409
14		C		4.1754		0.0682		0.1063		C.ar		1		UNL1		0.0153
15		C		4.0741		-0.7671		-1.0193		C.ar		1		UNL1		-0.1414
16		C		5.0442		-1.7244		-1.3021		C.ar		1		UNL1		-0.1376
17		C		6.1345		-1.8824		-0.4431		C.ar		1		UNL1		-0.1202
18		C		6.2554		-1.0794		0.6898		C.ar		1		UNL1		-0.1989
19		C		5.2871		-0.1148		0.9435		C.ar		1		UNL1		0.3500
20		F		5.4262		0.6306		2.0509		F		1		UNL1		-0.2705
21		C		0.9972		2.0569		-0.4956		C.ar		1		UNL1		0.0540
22		C		1.4594		3.4766		-0.6659		C.3		1		UNL1		-0.5016
23		C		-0.4128		1.8093		-0.7985		C.ar		1		UNL1		0.5753
24		O		-1.2346		2.6349		-1.1755		O.2		1		UNL1		-0.5177
25		N		-0.8138		0.4687		-0.5995		N.ar		1		UNL1		-0.6509
26		C		-4.0340		-0.6478		-1.1632		C.ar		1		UNL1		-0.2120
27		C		-5.1573		0.0341		-0.6821		C.ar		1		UNL1		-0.1819
28		H		-8.1795		1.7319		1.1099		H		1		UNL1		0.1764
29		H		-6.7640		2.2111		0.1318		H		1		UNL1		0.1626
30		H		-7.8429		0.8976		-0.4325		H		1		UNL1		0.1550
31		H		-5.2018		-1.2153		2.4749		H		1		UNL1		0.1505
32		H		-3.2005		-2.4049		1.6168		H		1		UNL1		0.1496
33		H		-1.9269		-1.9844		-1.9544		H		1		UNL1		0.1935
34		H		-2.3031		-3.3602		-0.9268		H		1		UNL1		0.2070
35		H		3.2229		-0.6530		-1.6809		H		1		UNL1		0.1481
36		H		4.9477		-2.3490		-2.1849		H		1		UNL1		0.1367
37		H		6.8915		-2.6335		-0.6509		H		1		UNL1		0.1427
38		H		7.0848		-1.1821		1.3817		H		1		UNL1		0.1502
39		H		0.8703		3.9547		-1.4529		H		1		UNL1		0.1723
40		H		1.2988		4.0478		0.2567		H		1		UNL1		0.1818
41		H		2.5234		3.5402		-0.8965		H		1		UNL1		0.1681
42		H		-1.8116		0.3004		-0.7025		H		1		UNL1		0.3681
43		H		-3.7268		-0.4829		-2.1943		H		1		UNL1		0.1422
44		H		-5.6825		0.7187		-1.3374		H		1		UNL1		0.1455
@<TRIPOS>BOND
1		43		26		1
2		36		16		1
3		33		7		1
4		35		15		1
5		39		22		1
6		44		27		1
7		16		15		ar
8		16		17		ar
9		24		23		2
10		26		27		ar
11		26		6		ar
12		15		14		ar
13		34		7		1
14		7		6		1
15		7		8		1
16		41		22		1
17		23		25		ar
18		23		21		ar
19		42		25		1
20		27		3		ar
21		22		21		1
22		22		40		1
23		37		17		1
24		25		9		ar
25		21		11		ar
26		17		18		ar
27		30		1		1
28		6		5		ar
29		9		8		1
30		9		10		ar
31		11		10		ar
32		11		12		1
33		14		12		1
34		14		19		ar
35		29		1		1
36		12		13		2
37		1		28		1
38		1		2		1
39		3		2		1
40		3		4		ar
41		18		19		ar
42		18		38		1
43		19		20		1
44		5		4		ar
45		5		32		1
46		4		31		1

