@<TRIPOS>MOLECULE
WHQ-2015-BMC-624-3-3j
 44 46 0 0 0
SMALL
MULLIKEN_CHARGES
****
Gaussian 16 #p B3LYP/6-31G* opt
@<TRIPOS>ATOM
1		C		4.3348		4.2222		-0.3460		C.3		1		UNL1		-0.5142
2		C		3.5277		2.9574		-0.2404		C.ar		1		UNL1		0.3440
3		C		2.1422		2.9679		-0.2279		C.ar		1		UNL1		-0.2568
4		C		1.5133		1.7148		-0.1242		C.ar		1		UNL1		0.6057
5		O		0.1676		1.7056		-0.1139		O.3		1		UNL1		-0.4852
6		C		-0.4828		0.4467		0.0182		C.3		1		UNL1		-0.1209
7		C		-1.9629		0.7343		0.2960		C.2		1		UNL1		0.6101
8		O		-2.3157		1.6423		1.0271		O.2		1		UNL1		-0.4802
9		N		-2.8066		-0.1666		-0.3125		N.am		1		UNL1		-0.7244
10		C		-4.2087		-0.2831		-0.1908		C.ar		1		UNL1		0.3593
11		C		-4.9869		0.5823		0.5929		C.ar		1		UNL1		-0.1585
12		C		-6.3670		0.3966		0.6625		C.ar		1		UNL1		-0.1648
13		C		-6.9725		-0.6399		-0.0434		C.ar		1		UNL1		0.0869
14		BR		-8.8658		-0.8814		0.0598		Br		1		UNL1		-0.1295
15		C		-6.2108		-1.5041		-0.8272		C.ar		1		UNL1		-0.1526
16		C		-4.8332		-1.3224		-0.8968		C.ar		1		UNL1		-0.1947
17		N		2.1793		0.5737		-0.0426		N.ar		1		UNL1		-0.5973
18		C		3.5297		0.6840		-0.0593		C.ar		1		UNL1		0.7038
19		N		4.1658		-0.5377		0.0353		N.pl3		1		UNL1		-0.7708
20		C		5.5140		-0.8967		0.0535		C.ar		1		UNL1		0.3829
21		C		6.5810		0.0165		-0.0355		C.ar		1		UNL1		-0.1590
22		C		7.8903		-0.4474		-0.0095		C.ar		1		UNL1		-0.1537
23		C		8.1758		-1.8180		0.1044		C.ar		1		UNL1		0.1313
24		C		9.5291		-2.2817		0.1291		C.1		1		UNL1		0.2272
25		N		10.6297		-2.6607		0.1488		N.1		1		UNL1		-0.4846
26		C		7.1081		-2.7287		0.1937		C.ar		1		UNL1		-0.1404
27		C		5.8008		-2.2725		0.1683		C.ar		1		UNL1		-0.2062
28		N		4.2354		1.8073		-0.1563		N.ar		1		UNL1		-0.5442
29		H		4.9893		4.3247		0.5269		H		1		UNL1		0.1803
30		H		3.6961		5.1066		-0.4143		H		1		UNL1		0.1618
31		H		4.9821		4.1829		-1.2294		H		1		UNL1		0.1790
32		H		1.5579		3.8772		-0.2883		H		1		UNL1		0.1569
33		H		-0.3266		-0.1544		-0.8864		H		1		UNL1		0.1520
34		H		-0.0622		-0.1123		0.8621		H		1		UNL1		0.1938
35		H		-2.3765		-0.8415		-0.9309		H		1		UNL1		0.3339
36		H		-4.5115		1.3875		1.1349		H		1		UNL1		0.1984
37		H		-6.9689		1.0652		1.2684		H		1		UNL1		0.1615
38		H		-6.6854		-2.3098		-1.3762		H		1		UNL1		0.1579
39		H		-4.2387		-1.9989		-1.5077		H		1		UNL1		0.1324
40		H		3.5049		-1.3002		0.1070		H		1		UNL1		0.3418
41		H		6.3669		1.0717		-0.1229		H		1		UNL1		0.1878
42		H		8.7086		0.2625		-0.0786		H		1		UNL1		0.1579
43		H		7.3118		-3.7909		0.2827		H		1		UNL1		0.1576
44		H		4.9834		-2.9867		0.2385		H		1		UNL1		0.1337
@<TRIPOS>BOND
1		39		16		1
2		38		15		1
3		31		1		1
4		35		9		1
5		16		15		ar
6		16		10		ar
7		33		6		1
8		15		13		ar
9		30		1		1
10		1		2		1
11		1		29		1
12		9		10		1
13		9		7		1
14		32		3		1
15		2		3		ar
16		2		28		ar
17		3		4		ar
18		10		11		ar
19		28		18		ar
20		4		5		1
21		4		17		ar
22		41		21		1
23		5		6		1
24		42		22		1
25		18		17		ar
26		18		19		1
27		13		14		1
28		13		12		ar
29		21		22		ar
30		21		20		ar
31		22		23		ar
32		6		7		1
33		6		34		1
34		19		20		1
35		19		40		1
36		20		27		ar
37		23		24		1
38		23		26		ar
39		24		25		3
40		27		26		ar
41		27		44		1
42		26		43		1
43		7		8		2
44		11		12		ar
45		11		36		1
46		12		37		1

