@<TRIPOS>MOLECULE
WHQ-2013-BMC-6477-3-7c
 44 46 0 0 0
SMALL
MULLIKEN_CHARGES
****
Gaussian 16 #p B3LYP/6-31G* opt
@<TRIPOS>ATOM
1		C		8.1800		0.5459		-1.8232		C.3		1		UNL1		-0.2221
2		O		7.3226		-0.5874		-1.8568		O.3		1		UNL1		-0.5019
3		C		6.3864		-0.7181		-0.8794		C.ar		1		UNL1		0.3809
4		C		5.5523		-1.8459		-0.9829		C.ar		1		UNL1		-0.1689
5		C		4.5588		-2.0705		-0.0441		C.ar		1		UNL1		-0.1655
6		C		4.3644		-1.1855		1.0320		C.ar		1		UNL1		0.1417
7		C		3.3109		-1.4373		2.0857		C.3		1		UNL1		-0.5477
8		S		1.5702		-1.7147		1.5066		S.3		1		UNL1		0.1925
9		C		1.0283		-0.1209		0.9297		C.ar		1		UNL1		0.3222
10		N		-0.2567		0.0379		0.8157		N.ar		1		UNL1		-0.5090
11		C		-0.7130		1.2571		0.3606		C.ar		1		UNL1		0.1421
12		C		-2.2227		1.3807		0.3272		C.2		1		UNL1		0.3652
13		O		-2.7468		2.4070		0.7376		O.2		1		UNL1		-0.4563
14		C		-3.0607		0.2557		-0.2012		C.ar		1		UNL1		0.0782
15		C		-2.5458		-0.8128		-0.9493		C.ar		1		UNL1		-0.1413
16		C		-3.4052		-1.7847		-1.4601		C.ar		1		UNL1		-0.1411
17		C		-4.7786		-1.7120		-1.2266		C.ar		1		UNL1		-0.1340
18		C		-5.2815		-0.6443		-0.4814		C.ar		1		UNL1		0.0763
19		BR		-7.1653		-0.5371		-0.1604		Br		1		UNL1		-0.1243
20		C		-4.4444		0.3398		0.0244		C.ar		1		UNL1		-0.1759
21		C		0.0962		2.3214		0.0342		C.ar		1		UNL1		0.0601
22		C		-0.3504		3.6741		-0.4432		C.3		1		UNL1		-0.5043
23		C		1.5420		2.1354		0.1434		C.ar		1		UNL1		0.5747
24		O		2.4063		2.9591		-0.1270		O.2		1		UNL1		-0.5163
25		N		1.9204		0.8540		0.6061		N.ar		1		UNL1		-0.6513
26		C		5.2040		-0.0712		1.1255		C.ar		1		UNL1		-0.2124
27		C		6.2089		0.1730		0.1829		C.ar		1		UNL1		-0.1819
28		H		8.7916		0.5598		-0.9118		H		1		UNL1		0.1558
29		H		7.6107		1.4814		-1.8934		H		1		UNL1		0.1626
30		H		8.8312		0.4520		-2.6936		H		1		UNL1		0.1766
31		H		5.7047		-2.5258		-1.8150		H		1		UNL1		0.1500
32		H		3.9142		-2.9395		-0.1473		H		1		UNL1		0.1479
33		H		3.3036		-0.6397		2.8346		H		1		UNL1		0.1969
34		H		3.5063		-2.3728		2.6229		H		1		UNL1		0.2083
35		H		-1.4805		-0.8889		-1.1267		H		1		UNL1		0.1545
36		H		-3.0053		-2.6098		-2.0425		H		1		UNL1		0.1451
37		H		-5.4508		-2.4694		-1.6152		H		1		UNL1		0.1588
38		H		-4.8357		1.1774		0.5894		H		1		UNL1		0.1828
39		H		-0.3463		4.3928		0.3859		H		1		UNL1		0.1797
40		H		0.3561		4.0460		-1.1908		H		1		UNL1		0.1737
41		H		-1.3600		3.6589		-0.8537		H		1		UNL1		0.1687
42		H		2.9225		0.6802		0.6136		H		1		UNL1		0.3685
43		H		5.0861		0.6254		1.9535		H		1		UNL1		0.1442
44		H		6.8320		1.0531		0.2887		H		1		UNL1		0.1464
@<TRIPOS>BOND
1		30		1		1
2		36		16		1
3		29		1		1
4		2		1		1
5		2		3		1
6		1		28		1
7		31		4		1
8		37		17		1
9		16		17		ar
10		16		15		ar
11		17		18		ar
12		40		22		1
13		35		15		1
14		4		3		ar
15		4		5		ar
16		15		14		ar
17		3		27		ar
18		41		22		1
19		18		19		1
20		18		20		ar
21		22		21		1
22		22		39		1
23		14		20		ar
24		14		12		1
25		32		5		1
26		24		23		2
27		5		6		ar
28		20		38		1
29		21		23		ar
30		21		11		ar
31		23		25		ar
32		27		44		1
33		27		26		ar
34		12		11		1
35		12		13		2
36		11		10		ar
37		25		42		1
38		25		9		ar
39		10		9		ar
40		9		8		1
41		6		26		ar
42		6		7		1
43		26		43		1
44		8		7		1
45		7		34		1
46		7		33		1

