@<TRIPOS>MOLECULE
WHQ-2015-BMC-624-3-3e
 42 44 0 0 0
SMALL
MULLIKEN_CHARGES
****
Gaussian 16 #p B3LYP/6-31G* opt
@<TRIPOS>ATOM
1		N		6.8247		-4.2871		-1.0466		N.1		1		UNL1		-0.4765
2		C		6.1685		-3.3826		-0.7220		C.1		1		UNL1		0.2325
3		C		5.3617		-2.2704		-0.3185		C.ar		1		UNL1		0.1353
4		C		4.7504		-1.4463		-1.2775		C.ar		1		UNL1		-0.1525
5		C		3.9646		-0.3644		-0.8979		C.ar		1		UNL1		-0.1659
6		C		3.7797		-0.0887		0.4675		C.ar		1		UNL1		0.3742
7		N		3.0011		0.9853		0.9362		N.am		1		UNL1		-0.7274
8		C		2.3271		1.9468		0.2112		C.2		1		UNL1		0.6165
9		O		2.2702		1.9964		-1.0022		O.2		1		UNL1		-0.4749
10		C		1.6747		3.0111		1.1121		C.3		1		UNL1		-0.1377
11		O		0.7734		3.8261		0.3853		O.3		1		UNL1		-0.4855
12		C		-0.4068		3.2809		0.0202		C.ar		1		UNL1		0.6082
13		C		-1.2744		4.0792		-0.7443		C.ar		1		UNL1		-0.2144
14		C		-2.4790		3.4874		-1.0727		C.ar		1		UNL1		0.0708
15		N		-2.8249		2.2409		-0.7051		N.ar		1		UNL1		-0.4898
16		C		-1.9158		1.5831		0.0166		C.ar		1		UNL1		0.7092
17		N		-2.1594		0.2950		0.4424		N.pl3		1		UNL1		-0.7668
18		C		-3.2512		-0.5597		0.2745		C.ar		1		UNL1		0.3827
19		C		-4.4298		-0.2177		-0.4134		C.ar		1		UNL1		-0.1582
20		C		-5.4606		-1.1435		-0.5174		C.ar		1		UNL1		-0.1532
21		C		-5.3514		-2.4225		0.0527		C.ar		1		UNL1		0.1319
22		C		-6.4219		-3.3653		-0.0604		C.1		1		UNL1		0.2281
23		N		-7.2923		-4.1331		-0.1503		N.1		1		UNL1		-0.4834
24		C		-4.1718		-2.7624		0.7382		C.ar		1		UNL1		-0.1400
25		C		-3.1409		-1.8438		0.8454		C.ar		1		UNL1		-0.2057
26		N		-0.7078		2.0530		0.4086		N.ar		1		UNL1		-0.5921
27		C		4.3900		-0.9117		1.4299		C.ar		1		UNL1		-0.2033
28		C		5.1719		-1.9904		1.0453		C.ar		1		UNL1		-0.1402
29		H		4.8930		-1.6586		-2.3322		H		1		UNL1		0.1672
30		H		3.4942		0.2659		-1.6388		H		1		UNL1		0.2019
31		H		2.9378		1.0565		1.9442		H		1		UNL1		0.3360
32		H		1.1757		2.5424		1.9674		H		1		UNL1		0.1743
33		H		2.4457		3.6978		1.4758		H		1		UNL1		0.1938
34		H		-1.0004		5.0808		-1.0492		H		1		UNL1		0.1605
35		H		-3.2173		4.0262		-1.6629		H		1		UNL1		0.1587
36		H		-1.3774		-0.0861		0.9585		H		1		UNL1		0.3415
37		H		-4.5194		0.7638		-0.8558		H		1		UNL1		0.1915
38		H		-6.3675		-0.8736		-1.0493		H		1		UNL1		0.1595
39		H		-4.0713		-3.7471		1.1829		H		1		UNL1		0.1586
40		H		-2.2328		-2.1186		1.3774		H		1		UNL1		0.1337
41		H		4.2513		-0.7019		2.4883		H		1		UNL1		0.1369
42		H		5.6395		-2.6196		1.7955		H		1		UNL1		0.1635
@<TRIPOS>BOND
1		29		4		1
2		35		14		1
3		30		5		1
4		4		5		ar
5		4		3		ar
6		14		13		ar
7		14		15		ar
8		38		20		1
9		34		13		1
10		1		2		3
11		9		8		2
12		5		6		ar
13		37		19		1
14		13		12		ar
15		2		3		1
16		15		16		ar
17		20		19		ar
18		20		21		ar
19		19		18		ar
20		3		28		ar
21		23		22		3
22		22		21		1
23		16		26		ar
24		16		17		1
25		12		11		1
26		12		26		ar
27		21		24		ar
28		8		7		1
29		8		10		1
30		18		17		1
31		18		25		ar
32		11		10		1
33		17		36		1
34		6		7		1
35		6		27		ar
36		24		25		ar
37		24		39		1
38		25		40		1
39		7		31		1
40		28		27		ar
41		28		42		1
42		10		33		1
43		10		32		1
44		27		41		1

