@<TRIPOS>MOLECULE
WHQ-2015-BMC-624-3-3t
 44 46 0 0 0
SMALL
MULLIKEN_CHARGES
****
Gaussian 16 #p B3LYP/6-31G* opt
@<TRIPOS>ATOM
1		C		-2.6755		5.1783		-1.0915		C.3		1		UNL1		-0.5219
2		C		-2.7446		3.7392		-0.6658		C.ar		1		UNL1		0.0834
3		C		-3.7631		2.8715		-1.0247		C.ar		1		UNL1		0.0152
4		N		-3.8325		1.5778		-0.6625		N.ar		1		UNL1		-0.4896
5		C		-2.8287		1.1410		0.0951		C.ar		1		UNL1		0.7062
6		N		-2.7844		-0.1724		0.5206		N.pl3		1		UNL1		-0.7691
7		C		-3.6423		-1.2526		0.3160		C.ar		1		UNL1		0.3840
8		C		-4.8438		-1.1854		-0.4141		C.ar		1		UNL1		-0.1594
9		C		-5.6308		-2.3217		-0.5535		C.ar		1		UNL1		-0.1536
10		C		-5.2522		-3.5460		0.0219		C.ar		1		UNL1		0.1307
11		C		-6.0734		-4.7079		-0.1282		C.1		1		UNL1		0.2267
12		N		-6.7409		-5.6542		-0.2484		N.1		1		UNL1		-0.4858
13		C		-4.0506		-3.6111		0.7497		C.ar		1		UNL1		-0.1404
14		C		-3.2618		-2.4821		0.8924		C.ar		1		UNL1		-0.2061
15		N		-1.7789		1.8764		0.5272		N.ar		1		UNL1		-0.5935
16		C		-1.7529		3.1401		0.1423		C.ar		1		UNL1		0.5653
17		O		-0.7416		3.9387		0.5510		O.3		1		UNL1		-0.4856
18		C		0.3052		3.3424		1.2967		C.3		1		UNL1		-0.1362
19		C		1.2013		2.4626		0.4047		C.2		1		UNL1		0.6159
20		O		1.1812		2.5415		-0.8101		O.2		1		UNL1		-0.4840
21		N		2.0293		1.6430		1.1352		N.am		1		UNL1		-0.7245
22		C		3.0386		0.7684		0.6764		C.ar		1		UNL1		0.3593
23		C		3.3282		0.5768		-0.6831		C.ar		1		UNL1		-0.1585
24		C		4.3414		-0.3060		-1.0550		C.ar		1		UNL1		-0.1648
25		C		5.0625		-0.9966		-0.0842		C.ar		1		UNL1		0.0864
26		BR		6.4480		-2.2044		-0.6086		Br		1		UNL1		-0.1289
27		C		4.7833		-0.8158		1.2687		C.ar		1		UNL1		-0.1528
28		C		3.7737		0.0655		1.6429		C.ar		1		UNL1		-0.1963
29		H		-2.6748		5.8544		-0.2283		H		1		UNL1		0.1688
30		H		-1.7576		5.3809		-1.6554		H		1		UNL1		0.1816
31		H		-3.5310		5.4342		-1.7243		H		1		UNL1		0.1569
32		H		-4.5817		3.2289		-1.6481		H		1		UNL1		0.1482
33		H		-1.9535		-0.3650		1.0642		H		1		UNL1		0.3408
34		H		-5.1396		-0.2473		-0.8610		H		1		UNL1		0.1907
35		H		-6.5561		-2.2628		-1.1179		H		1		UNL1		0.1578
36		H		-3.7430		-4.5497		1.1992		H		1		UNL1		0.1567
37		H		-2.3340		-2.5454		1.4567		H		1		UNL1		0.1327
38		H		-0.0956		2.7668		2.1382		H		1		UNL1		0.1717
39		H		0.8915		4.1833		1.6803		H		1		UNL1		0.1906
40		H		1.9099		1.6631		2.1401		H		1		UNL1		0.3326
41		H		2.7634		1.1138		-1.4320		H		1		UNL1		0.1974
42		H		4.5653		-0.4542		-2.1058		H		1		UNL1		0.1620
43		H		5.3468		-1.3547		2.0224		H		1		UNL1		0.1579
44		H		3.5582		0.2080		2.7001		H		1		UNL1		0.1315
@<TRIPOS>BOND
1		42		24		1
2		31		1		1
3		30		1		1
4		32		3		1
5		41		23		1
6		35		9		1
7		1		2		1
8		1		29		1
9		24		23		ar
10		24		25		ar
11		3		2		ar
12		3		4		ar
13		34		8		1
14		20		19		2
15		23		22		ar
16		2		16		ar
17		4		5		ar
18		26		25		1
19		9		8		ar
20		9		10		ar
21		8		7		ar
22		12		11		3
23		11		10		1
24		25		27		ar
25		10		13		ar
26		5		6		1
27		5		15		ar
28		16		15		ar
29		16		17		1
30		7		6		1
31		7		14		ar
32		19		21		1
33		19		18		1
34		6		33		1
35		17		18		1
36		22		21		1
37		22		28		ar
38		13		14		ar
39		13		36		1
40		14		37		1
41		21		40		1
42		27		28		ar
43		27		43		1
44		18		39		1
45		18		38		1
46		28		44		1

