@<TRIPOS>MOLECULE
WHQ-2014-MCC-5468-3-1a
 46 48 0 0 0
SMALL
MULLIKEN_CHARGES
****
Gaussian 16 #p B3LYP/6-31G* opt
@<TRIPOS>ATOM
1		C		-8.4835		-1.1583		0.8889		C.3		1		UNL1		-0.2196
2		O		-7.5707		-1.4511		-0.1594		O.3		1		UNL1		-0.5025
3		C		-6.3819		-0.7890		-0.1870		C.ar		1		UNL1		0.3817
4		C		-5.5188		-1.1321		-1.2399		C.ar		1		UNL1		-0.1708
5		C		-4.2835		-0.5123		-1.3575		C.ar		1		UNL1		-0.1634
6		C		-3.8747		0.4675		-0.4382		C.ar		1		UNL1		0.1410
7		C		-2.5282		1.1314		-0.5653		C.3		1		UNL1		-0.5487
8		S		-1.2767		0.1304		0.3765		S.3		1		UNL1		0.2320
9		C		0.2438		1.0044		0.1173		C.ar		1		UNL1		0.3262
10		N		1.3061		0.4889		0.6667		N.ar		1		UNL1		-0.5133
11		C		2.4981		1.1412		0.4877		C.ar		1		UNL1		0.2494
12		C		3.6903		0.4436		1.1525		C.3		1		UNL1		-0.3283
13		C		3.3682		0.0658		2.5396		C.1		1		UNL1		0.3751
14		N		3.1524		-0.2242		3.6422		N.1		1		UNL1		-0.4652
15		C		4.1715		-0.7646		0.3378		C.ar		1		UNL1		0.1641
16		C		5.4301		-0.7304		-0.2722		C.ar		1		UNL1		-0.1812
17		C		5.8728		-1.8138		-1.0346		C.ar		1		UNL1		-0.1313
18		C		5.0689		-2.9409		-1.1942		C.ar		1		UNL1		-0.1911
19		C		3.8229		-2.9541		-0.5750		C.ar		1		UNL1		0.3842
20		F		3.0378		-4.0409		-0.7210		F		1		UNL1		-0.2943
21		C		3.3562		-1.8923		0.1877		C.ar		1		UNL1		-0.2335
22		C		2.6604		2.2960		-0.2390		C.ar		1		UNL1		0.0649
23		C		3.9680		3.0138		-0.4577		C.3		1		UNL1		-0.5556
24		C		1.4795		2.8832		-0.8581		C.ar		1		UNL1		0.5773
25		O		1.4211		3.9028		-1.5338		O.2		1		UNL1		-0.5228
26		N		0.2908		2.1511		-0.6139		N.ar		1		UNL1		-0.6518
27		C		-4.7411		0.7970		0.6072		C.ar		1		UNL1		-0.1691
28		C		-5.9877		0.1829		0.7410		C.ar		1		UNL1		-0.1942
29		H		-9.3491		-1.8003		0.7179		H		1		UNL1		0.1758
30		H		-8.8006		-0.1075		0.8648		H		1		UNL1		0.1552
31		H		-8.0522		-1.3843		1.8726		H		1		UNL1		0.1578
32		H		-5.8416		-1.8861		-1.9505		H		1		UNL1		0.1478
33		H		-3.6244		-0.7906		-2.1764		H		1		UNL1		0.1387
34		H		-2.5571		2.1427		-0.1468		H		1		UNL1		0.1915
35		H		-2.2208		1.1815		-1.6149		H		1		UNL1		0.1919
36		H		4.5193		1.1551		1.2103		H		1		UNL1		0.1952
37		H		6.0703		0.1385		-0.1464		H		1		UNL1		0.1348
38		H		6.8521		-1.7805		-1.5033		H		1		UNL1		0.1438
39		H		5.3881		-3.7981		-1.7775		H		1		UNL1		0.1507
40		H		2.3759		-1.9435		0.6477		H		1		UNL1		0.1859
41		H		3.7879		3.8986		-1.0714		H		1		UNL1		0.2021
42		H		4.6988		2.3822		-0.9768		H		1		UNL1		0.1667
43		H		4.4206		3.3437		0.4859		H		1		UNL1		0.1669
44		H		-0.5376		2.5552		-1.0344		H		1		UNL1		0.3571
45		H		-4.4445		1.5484		1.3353		H		1		UNL1		0.1385
46		H		-6.6349		0.4679		1.5621		H		1		UNL1		0.1404
@<TRIPOS>BOND
1		33		5		1
2		32		4		1
3		39		18		1
4		35		7		1
5		25		24		2
6		38		17		1
7		5		4		ar
8		5		6		ar
9		4		3		ar
10		18		17		ar
11		18		19		ar
12		41		23		1
13		17		16		ar
14		44		26		1
15		42		23		1
16		24		26		ar
17		24		22		ar
18		20		19		1
19		26		9		ar
20		19		21		ar
21		7		6		1
22		7		34		1
23		7		8		1
24		23		22		1
25		23		43		1
26		6		27		ar
27		16		37		1
28		16		15		ar
29		22		11		ar
30		3		2		1
31		3		28		ar
32		2		1		1
33		9		8		1
34		9		10		ar
35		21		15		ar
36		21		40		1
37		15		12		1
38		11		10		ar
39		11		12		1
40		27		28		ar
41		27		45		1
42		29		1		1
43		28		46		1
44		30		1		1
45		1		31		1
46		12		36		1
47		12		13		1
48		13		14		3

