@<TRIPOS>MOLECULE
WHQ-2014-SQER-761-74
 44 47 0 0 0
SMALL
MULLIKEN_CHARGES
****
Gaussian 16 #p B3LYP/6-31G* opt
@<TRIPOS>ATOM
1		C		-0.9480		1.3230		2.1565		C.3		1		UNL1		-0.5466
2		C		0.2750		1.0513		1.3196		C.ar		1		UNL1		0.1237
3		C		1.5054		0.8057		1.9283		C.ar		1		UNL1		0.0155
4		N		2.6579		0.5749		1.2915		N.ar		1		UNL1		-0.4785
5		C		2.5784		0.6024		-0.0428		C.ar		1		UNL1		0.6988
6		N		3.6970		0.3932		-0.8214		N.pl3		1		UNL1		-0.7682
7		C		5.0301		0.1356		-0.4999		C.ar		1		UNL1		0.3826
8		C		5.9210		-0.0271		-1.5806		C.ar		1		UNL1		-0.2059
9		C		7.2641		-0.2855		-1.3639		C.ar		1		UNL1		-0.1404
10		C		7.7610		-0.3899		-0.0525		C.ar		1		UNL1		0.1312
11		C		9.1475		-0.6566		0.1795		C.1		1		UNL1		0.2273
12		N		10.2758		-0.8736		0.3671		N.1		1		UNL1		-0.4846
13		C		6.8734		-0.2279		1.0240		C.ar		1		UNL1		-0.1533
14		C		5.5249		0.0314		0.8134		C.ar		1		UNL1		-0.1604
15		N		1.4630		0.8243		-0.7611		N.ar		1		UNL1		-0.5381
16		C		0.3448		1.0291		-0.0915		C.ar		1		UNL1		0.4792
17		O		-0.6999		1.3220		-0.9359		O.3		1		UNL1		-0.5372
18		C		-2.0327		1.1129		-0.6794		C.ar		1		UNL1		0.3278
19		C		-2.8665		2.2428		-0.8746		C.ar		1		UNL1		-0.1683
20		C		-4.2258		2.1373		-0.7411		C.ar		1		UNL1		-0.1887
21		C		-4.8264		0.8949		-0.4032		C.ar		1		UNL1		0.1461
22		C		-6.2283		0.7776		-0.2524		C.ar		1		UNL1		-0.2173
23		C		-6.8091		-0.4368		0.0715		C.ar		1		UNL1		0.1389
24		C		-8.2307		-0.5408		0.2232		C.1		1		UNL1		0.2375
25		N		-9.3837		-0.6315		0.3486		N.1		1		UNL1		-0.4720
26		C		-5.9893		-1.5850		0.2552		C.ar		1		UNL1		-0.1387
27		C		-4.6263		-1.4954		0.1137		C.ar		1		UNL1		-0.1959
28		C		-3.9987		-0.2635		-0.2175		C.ar		1		UNL1		0.1087
29		C		-2.5886		-0.1181		-0.3805		C.ar		1		UNL1		-0.0287
30		BR		-1.4506		-1.6327		-0.1861		Br		1		UNL1		-0.0818
31		H		-1.6461		0.4787		2.1434		H		1		UNL1		0.1813
32		H		-1.4956		2.2099		1.8222		H		1		UNL1		0.1707
33		H		-0.6499		1.4908		3.1964		H		1		UNL1		0.1668
34		H		1.5622		0.8044		3.0164		H		1		UNL1		0.1514
35		H		3.4788		0.4414		-1.8085		H		1		UNL1		0.3498
36		H		5.5483		0.0515		-2.5993		H		1		UNL1		0.1378
37		H		7.9369		-0.4082		-2.2065		H		1		UNL1		0.1583
38		H		7.2486		-0.3070		2.0395		H		1		UNL1		0.1581
39		H		4.8485		0.1545		1.6467		H		1		UNL1		0.1890
40		H		-2.3884		3.1812		-1.1350		H		1		UNL1		0.1654
41		H		-4.8602		3.0064		-0.8896		H		1		UNL1		0.1562
42		H		-6.8501		1.6563		-0.3945		H		1		UNL1		0.1661
43		H		-6.4533		-2.5323		0.5091		H		1		UNL1		0.1660
44		H		-4.0107		-2.3755		0.2565		H		1		UNL1		0.1702
@<TRIPOS>BOND
1		36		8		1
2		37		9		1
3		35		6		1
4		8		9		ar
5		8		7		ar
6		9		10		ar
7		40		19		1
8		17		18		1
9		17		16		1
10		41		20		1
11		19		20		ar
12		19		18		ar
13		6		7		1
14		6		5		1
15		15		16		ar
16		15		5		ar
17		20		21		ar
18		18		29		ar
19		7		14		ar
20		21		22		ar
21		21		28		ar
22		42		22		1
23		29		28		ar
24		29		30		1
25		22		23		ar
26		28		27		ar
27		16		2		ar
28		10		11		1
29		10		13		ar
30		5		4		ar
31		23		24		1
32		23		26		ar
33		27		26		ar
34		27		44		1
35		11		12		3
36		24		25		3
37		26		43		1
38		14		13		ar
39		14		39		1
40		13		38		1
41		4		3		ar
42		2		3		ar
43		2		1		1
44		32		1		1
45		3		34		1
46		31		1		1
47		1		33		1

