@<TRIPOS>MOLECULE
WHQ-2014-MCC-5468-3-1s
 46 48 0 0 0
SMALL
MULLIKEN_CHARGES
****
Gaussian 16 #p B3LYP/6-31G* opt
@<TRIPOS>ATOM
1		C		-7.4339		2.5539		-0.0358		C.3		1		UNL1		-0.2213
2		O		-7.0107		1.4822		0.7959		O.3		1		UNL1		-0.5020
3		C		-6.0604		0.6328		0.3210		C.ar		1		UNL1		0.3805
4		C		-5.6641		-0.3903		1.2008		C.ar		1		UNL1		-0.1689
5		C		-4.6964		-1.3055		0.8203		C.ar		1		UNL1		-0.1658
6		C		-4.0943		-1.2381		-0.4492		C.ar		1		UNL1		0.1415
7		C		-3.0659		-2.2522		-0.8955		C.3		1		UNL1		-0.5504
8		S		-1.6144		-2.5474		0.2195		S.3		1		UNL1		0.2101
9		C		-0.6505		-1.0593		0.1027		C.ar		1		UNL1		0.3211
10		N		0.5748		-1.1441		0.5309		N.ar		1		UNL1		-0.5060
11		C		1.3470		-0.0154		0.4867		C.ar		1		UNL1		0.2526
12		C		2.7700		-0.1912		1.0439		C.3		1		UNL1		-0.3335
13		C		2.9466		-1.4826		1.7330		C.1		1		UNL1		0.3950
14		N		3.1727		-2.4694		2.2991		N.1		1		UNL1		-0.4702
15		C		3.8823		-0.0137		0.0065		C.ar		1		UNL1		0.1019
16		C		3.8469		-0.7269		-1.1980		C.ar		1		UNL1		0.3633
17		F		2.8082		-1.5551		-1.4109		F		1		UNL1		-0.2760
18		C		4.8229		-0.6267		-2.1787		C.ar		1		UNL1		-0.1909
19		C		5.9079		0.2181		-1.9531		C.ar		1		UNL1		-0.1250
20		C		6.0039		0.9388		-0.7647		C.ar		1		UNL1		-0.1248
21		C		5.0015		0.8114		0.1981		C.ar		1		UNL1		-0.1389
22		CL		5.1932		1.7279		1.6895		Cl		1		UNL1		0.0048
23		C		0.9218		1.2005		0.0059		C.ar		1		UNL1		0.0607
24		C		1.7388		2.4622		-0.0527		C.3		1		UNL1		-0.5367
25		C		-0.4449		1.2999		-0.4907		C.ar		1		UNL1		0.5728
26		O		-0.9890		2.2975		-0.9493		O.2		1		UNL1		-0.5249
27		N		-1.1764		0.0930		-0.3894		N.ar		1		UNL1		-0.6505
28		C		-4.5007		-0.2186		-1.3154		C.ar		1		UNL1		-0.2115
29		C		-5.4733		0.7167		-0.9448		C.ar		1		UNL1		-0.1822
30		H		-7.8931		2.1861		-0.9626		H		1		UNL1		0.1550
31		H		-8.1784		3.1033		0.5425		H		1		UNL1		0.1760
32		H		-6.5997		3.2224		-0.2842		H		1		UNL1		0.1617
33		H		-6.1297		-0.4381		2.1802		H		1		UNL1		0.1503
34		H		-4.3912		-2.0805		1.5186		H		1		UNL1		0.1512
35		H		-2.6938		-2.0200		-1.8981		H		1		UNL1		0.1944
36		H		-3.5007		-3.2574		-0.9463		H		1		UNL1		0.2083
37		H		2.9188		0.5814		1.8061		H		1		UNL1		0.2213
38		H		4.7218		-1.2105		-3.0869		H		1		UNL1		0.1599
39		H		6.6862		0.3127		-2.7040		H		1		UNL1		0.1547
40		H		6.8477		1.5919		-0.5744		H		1		UNL1		0.1629
41		H		2.3069		2.5317		-0.9896		H		1		UNL1		0.1728
42		H		2.4537		2.5395		0.7714		H		1		UNL1		0.1616
43		H		1.0683		3.3245		-0.0206		H		1		UNL1		0.1910
44		H		-2.1604		0.1669		-0.6349		H		1		UNL1		0.3675
45		H		-4.0614		-0.1475		-2.3088		H		1		UNL1		0.1418
46		H		-5.7533		1.4956		-1.6440		H		1		UNL1		0.1446
@<TRIPOS>BOND
1		38		18		1
2		39		19		1
3		45		28		1
4		18		19		ar
5		18		16		ar
6		19		20		ar
7		35		7		1
8		46		29		1
9		17		16		1
10		28		29		ar
11		28		6		ar
12		16		15		ar
13		41		24		1
14		30		1		1
15		26		25		2
16		36		7		1
17		29		3		ar
18		7		6		1
19		7		8		1
20		20		40		1
21		20		21		ar
22		44		27		1
23		25		27		ar
24		25		23		ar
25		6		5		ar
26		27		9		ar
27		32		1		1
28		24		43		1
29		24		23		1
30		24		42		1
31		1		31		1
32		1		2		1
33		23		11		ar
34		15		21		ar
35		15		12		1
36		9		8		1
37		9		10		ar
38		21		22		1
39		3		2		1
40		3		4		ar
41		11		10		ar
42		11		12		1
43		5		4		ar
44		5		34		1
45		12		13		1
46		12		37		1
47		4		33		1
48		13		14		3

