@<TRIPOS>MOLECULE
WHQ-2014-SQER-761-18
 43 46 0 0 0
SMALL
MULLIKEN_CHARGES
****
Gaussian 16 #p B3LYP/6-31G* opt
@<TRIPOS>ATOM
1		C		-0.7189		2.9633		1.2070		C.3		1		UNL1		-0.5142
2		C		-0.6957		1.6210		0.5268		C.ar		1		UNL1		0.3417
3		C		0.4987		1.0143		0.1486		C.ar		1		UNL1		-0.2545
4		C		0.3822		-0.2383		-0.4726		C.ar		1		UNL1		0.5511
5		O		1.4504		-0.9707		-0.8997		O.3		1		UNL1		-0.5284
6		C		2.7262		-0.4389		-0.8310		C.ar		1		UNL1		0.3182
7		C		3.1729		0.3857		-1.8896		C.ar		1		UNL1		-0.1473
8		C		4.4619		0.8575		-1.8963		C.ar		1		UNL1		-0.2030
9		C		5.3651		0.5252		-0.8520		C.ar		1		UNL1		0.1530
10		C		6.7022		1.0041		-0.8478		C.ar		1		UNL1		-0.1951
11		C		7.5705		0.6735		0.1667		C.ar		1		UNL1		-0.1297
12		C		7.1348		-0.1560		1.2264		C.ar		1		UNL1		-0.1325
13		C		5.8459		-0.6401		1.2569		C.ar		1		UNL1		-0.1937
14		C		4.9254		-0.3170		0.2250		C.ar		1		UNL1		0.1248
15		C		3.5765		-0.7849		0.2006		C.ar		1		UNL1		-0.1942
16		CL		2.9755		-1.8150		1.4824		Cl		1		UNL1		0.0226
17		N		-0.7782		-0.8276		-0.6980		N.ar		1		UNL1		-0.5478
18		C		-1.8690		-0.1501		-0.2883		C.ar		1		UNL1		0.6999
19		N		-3.0455		-0.8227		-0.5501		N.pl3		1		UNL1		-0.7714
20		C		-4.3828		-0.5105		-0.3086		C.ar		1		UNL1		0.3830
21		C		-4.8246		0.6752		0.3077		C.ar		1		UNL1		-0.1595
22		C		-6.1837		0.8886		0.5001		C.ar		1		UNL1		-0.1539
23		C		-7.1355		-0.0597		0.0903		C.ar		1		UNL1		0.1307
24		C		-8.5322		0.1739		0.2945		C.1		1		UNL1		0.2264
25		N		-9.6689		0.3635		0.4600		N.1		1		UNL1		-0.4863
26		C		-6.6921		-1.2440		-0.5249		C.ar		1		UNL1		-0.1408
27		C		-5.3387		-1.4626		-0.7196		C.ar		1		UNL1		-0.2057
28		N		-1.8926		1.0445		0.3097		N.ar		1		UNL1		-0.5403
29		H		-1.3135		3.6722		0.6201		H		1		UNL1		0.1795
30		H		0.2872		3.3698		1.3396		H		1		UNL1		0.1592
31		H		-1.1978		2.8783		2.1889		H		1		UNL1		0.1817
32		H		1.4573		1.4803		0.3327		H		1		UNL1		0.1568
33		H		2.4759		0.6176		-2.6885		H		1		UNL1		0.1558
34		H		4.8084		1.4889		-2.7099		H		1		UNL1		0.1464
35		H		7.0266		1.6399		-1.6678		H		1		UNL1		0.1391
36		H		8.5905		1.0469		0.1568		H		1		UNL1		0.1401
37		H		7.8246		-0.4145		2.0249		H		1		UNL1		0.1415
38		H		5.5209		-1.2756		2.0726		H		1		UNL1		0.1610
39		H		-2.8707		-1.7123		-1.0003		H		1		UNL1		0.3495
40		H		-4.0973		1.4081		0.6254		H		1		UNL1		0.1855
41		H		-6.5171		1.8054		0.9762		H		1		UNL1		0.1560
42		H		-7.4145		-1.9870		-0.8471		H		1		UNL1		0.1571
43		H		-5.0079		-2.3824		-1.1964		H		1		UNL1		0.1377
@<TRIPOS>BOND
1		34		8		1
2		33		7		1
3		8		7		ar
4		8		9		ar
5		7		6		ar
6		35		10		1
7		43		27		1
8		39		19		1
9		5		6		1
10		5		4		1
11		9		10		ar
12		9		14		ar
13		10		11		ar
14		42		26		1
15		6		15		ar
16		27		26		ar
17		27		20		ar
18		17		4		ar
19		17		18		ar
20		19		20		1
21		19		18		1
22		26		23		ar
23		4		3		ar
24		20		21		ar
25		18		28		ar
26		23		24		1
27		23		22		ar
28		3		32		1
29		3		2		ar
30		36		11		1
31		11		12		ar
32		15		14		ar
33		15		16		1
34		14		13		ar
35		24		25		3
36		21		22		ar
37		21		40		1
38		28		2		ar
39		22		41		1
40		2		1		1
41		29		1		1
42		1		30		1
43		1		31		1
44		12		13		ar
45		12		37		1
46		13		38		1

