@<TRIPOS>MOLECULE
WHQ-2014-MCC-5468-3-1n
 52 54 0 0 0
SMALL
MULLIKEN_CHARGES
****
Gaussian 16 #p B3LYP/6-31G* opt
@<TRIPOS>ATOM
1		C		9.5103		1.0988		0.8935		C.3		1		UNL1		-0.2198
2		O		8.5393		1.6775		0.0330		O.3		1		UNL1		-0.5023
3		C		7.3304		1.0641		-0.0852		C.ar		1		UNL1		0.3819
4		C		6.9651		-0.1149		0.5765		C.ar		1		UNL1		-0.1943
5		C		5.6931		-0.6528		0.3730		C.ar		1		UNL1		-0.1696
6		C		4.7723		-0.0434		-0.4832		C.ar		1		UNL1		0.1414
7		C		3.4000		-0.6305		-0.6878		C.3		1		UNL1		-0.5473
8		S		2.2393		0.1103		0.5614		S.3		1		UNL1		0.2226
9		C		0.6803		-0.6501		0.1908		C.ar		1		UNL1		0.3305
10		N		-0.3291		-0.2877		0.9312		N.ar		1		UNL1		-0.5319
11		C		-1.5559		-0.8528		0.6704		C.ar		1		UNL1		0.2137
12		C		-2.6242		-0.3122		1.6425		C.3		1		UNL1		-0.3039
13		C		-3.2795		-1.3923		2.3932		C.1		1		UNL1		0.3743
14		N		-3.7881		-2.2369		3.0064		N.1		1		UNL1		-0.4943
15		C		-3.6141		0.6631		0.9893		C.ar		1		UNL1		0.1562
16		C		-4.9997		0.5154		1.0903		C.ar		1		UNL1		-0.1818
17		C		-5.8616		1.4449		0.5045		C.ar		1		UNL1		-0.1360
18		C		-5.3271		2.5300		-0.1843		C.ar		1		UNL1		-0.0611
19		CL		-6.4043		3.7047		-0.9256		Cl		1		UNL1		-0.0186
20		C		-3.9464		2.7011		-0.2922		C.ar		1		UNL1		-0.1346
21		C		-3.0981		1.7670		0.2969		C.ar		1		UNL1		-0.1648
22		C		-1.8099		-1.7590		-0.3353		C.ar		1		UNL1		0.0759
23		C		-3.1753		-2.3485		-0.6521		C.3		1		UNL1		-0.1484
24		C		-3.2108		-3.8725		-0.4182		C.3		1		UNL1		-0.4585
25		C		-3.6350		-1.9812		-2.0784		C.3		1		UNL1		-0.4578
26		C		-0.6797		-2.1798		-1.1576		C.ar		1		UNL1		0.5823
27		O		-0.6760		-2.9832		-2.0833		O.2		1		UNL1		-0.5198
28		N		0.5482		-1.5599		-0.8078		N.ar		1		UNL1		-0.6491
29		C		5.1530		1.1406		-1.1356		C.ar		1		UNL1		-0.1636
30		C		6.4128		1.6887		-0.9450		C.ar		1		UNL1		-0.1709
31		H		9.7882		0.0889		0.5650		H		1		UNL1		0.1559
32		H		9.1546		1.0576		1.9311		H		1		UNL1		0.1573
33		H		10.3841		1.7499		0.8369		H		1		UNL1		0.1764
34		H		7.6545		-0.6188		1.2437		H		1		UNL1		0.1407
35		H		5.4199		-1.5678		0.8935		H		1		UNL1		0.1384
36		H		3.0280		-0.4015		-1.6916		H		1		UNL1		0.1925
37		H		3.4207		-1.7160		-0.5474		H		1		UNL1		0.1925
38		H		-2.0438		0.2543		2.3813		H		1		UNL1		0.2296
39		H		-5.4196		-0.3266		1.6326		H		1		UNL1		0.1669
40		H		-6.9366		1.3247		0.5847		H		1		UNL1		0.1626
41		H		-3.5431		3.5546		-0.8265		H		1		UNL1		0.1598
42		H		-2.0226		1.9009		0.2211		H		1		UNL1		0.1593
43		H		-3.8969		-1.9014		0.0366		H		1		UNL1		0.1361
44		H		-2.5058		-4.3848		-1.0779		H		1		UNL1		0.1755
45		H		-2.9664		-4.1160		0.6211		H		1		UNL1		0.1568
46		H		-4.2173		-4.2549		-0.6242		H		1		UNL1		0.1422
47		H		-2.9711		-2.4173		-2.8287		H		1		UNL1		0.1798
48		H		-4.6484		-2.3626		-2.2490		H		1		UNL1		0.1424
49		H		-3.6564		-0.8945		-2.2183		H		1		UNL1		0.1426
50		H		1.3319		-1.8560		-1.3781		H		1		UNL1		0.3563
51		H		4.4524		1.6365		-1.8033		H		1		UNL1		0.1382
52		H		6.7140		2.6001		-1.4513		H		1		UNL1		0.1482
@<TRIPOS>BOND
1		47		25		1
2		48		25		1
3		49		25		1
4		27		26		2
5		25		23		1
6		51		29		1
7		36		7		1
8		52		30		1
9		50		28		1
10		26		28		ar
11		26		22		ar
12		29		30		ar
13		29		6		ar
14		44		24		1
15		30		3		ar
16		19		18		1
17		41		20		1
18		28		9		ar
19		7		37		1
20		7		6		1
21		7		8		1
22		23		24		1
23		23		22		1
24		23		43		1
25		46		24		1
26		6		5		ar
27		24		45		1
28		22		11		ar
29		20		18		ar
30		20		21		ar
31		18		17		ar
32		3		2		1
33		3		4		ar
34		2		1		1
35		9		8		1
36		9		10		ar
37		42		21		1
38		21		15		ar
39		5		4		ar
40		5		35		1
41		17		40		1
42		17		16		ar
43		31		1		1
44		4		34		1
45		11		10		ar
46		11		12		1
47		33		1		1
48		1		32		1
49		15		16		ar
50		15		12		1
51		16		39		1
52		12		38		1
53		12		13		1
54		13		14		3

