@<TRIPOS>MOLECULE
WHQ-2014-SQER-761-39
 46 49 0 0 0
SMALL
MULLIKEN_CHARGES
****
Gaussian 16 #p B3LYP/6-31G* opt
@<TRIPOS>ATOM
1		C		-4.8610		-1.7447		1.5990		C.3		1		UNL1		-0.4424
2		C		-4.4093		-1.4589		0.1550		C.3		1		UNL1		-0.3340
3		C		-3.4624		-0.2894		0.0490		C.ar		1		UNL1		0.0937
4		C		-3.8221		1.0403		-0.1905		C.ar		1		UNL1		0.0648
5		CL		-5.5205		1.4531		-0.4032		Cl		1		UNL1		0.0145
6		N		-2.9853		2.0604		-0.2782		N.ar		1		UNL1		-0.4960
7		C		-1.6847		1.7649		-0.1127		C.ar		1		UNL1		0.6965
8		N		-0.8500		2.8544		-0.2169		N.pl3		1		UNL1		-0.7719
9		C		0.5362		2.9918		-0.1189		C.ar		1		UNL1		0.3801
10		C		1.4254		1.9295		0.1265		C.ar		1		UNL1		-0.1620
11		C		2.7903		2.1763		0.2054		C.ar		1		UNL1		-0.1583
12		C		3.3063		3.4727		0.0453		C.ar		1		UNL1		0.1320
13		C		4.7145		3.7115		0.1319		C.1		1		UNL1		0.2279
14		N		5.8601		3.9053		0.2039		N.1		1		UNL1		-0.4848
15		C		2.4156		4.5328		-0.2003		C.ar		1		UNL1		-0.1406
16		C		1.0540		4.2931		-0.2807		C.ar		1		UNL1		-0.2042
17		N		-1.1853		0.5491		0.1372		N.ar		1		UNL1		-0.5503
18		C		-2.0709		-0.4342		0.2136		C.ar		1		UNL1		0.5459
19		O		-1.6237		-1.6917		0.4759		O.3		1		UNL1		-0.5610
20		C		-0.2577		-1.9171		0.6067		C.ar		1		UNL1		0.3567
21		C		0.3321		-1.7659		1.8807		C.ar		1		UNL1		-0.1458
22		C		1.6606		-2.0623		2.0589		C.ar		1		UNL1		-0.2065
23		C		2.4560		-2.5249		0.9770		C.ar		1		UNL1		0.1506
24		C		3.8327		-2.8311		1.1465		C.ar		1		UNL1		-0.1968
25		C		4.5943		-3.2794		0.0923		C.ar		1		UNL1		-0.1290
26		C		4.0066		-3.4430		-1.1840		C.ar		1		UNL1		-0.1321
27		C		2.6748		-3.1575		-1.3874		C.ar		1		UNL1		-0.1932
28		C		1.8623		-2.6908		-0.3203		C.ar		1		UNL1		0.1227
29		C		0.4787		-2.3712		-0.4671		C.ar		1		UNL1		-0.1889
30		CL		-0.3093		-2.5484		-2.0212		Cl		1		UNL1		0.0159
31		H		-5.3877		-0.8844		2.0255		H		1		UNL1		0.1578
32		H		-5.5396		-2.6045		1.6231		H		1		UNL1		0.1522
33		H		-4.0028		-1.9732		2.2397		H		1		UNL1		0.1525
34		H		-3.9121		-2.3456		-0.2507		H		1		UNL1		0.1707
35		H		-5.2854		-1.2671		-0.4712		H		1		UNL1		0.1669
36		H		-1.3695		3.7027		-0.4047		H		1		UNL1		0.3528
37		H		1.0432		0.9276		0.2520		H		1		UNL1		0.1982
38		H		3.4691		1.3504		0.3931		H		1		UNL1		0.1608
39		H		2.7983		5.5403		-0.3268		H		1		UNL1		0.1591
40		H		0.3749		5.1209		-0.4712		H		1		UNL1		0.1398
41		H		-0.2889		-1.4158		2.6984		H		1		UNL1		0.1518
42		H		2.1195		-1.9463		3.0369		H		1		UNL1		0.1476
43		H		4.2740		-2.7024		2.1317		H		1		UNL1		0.1409
44		H		5.6464		-3.5076		0.2361		H		1		UNL1		0.1423
45		H		4.6127		-3.7967		-2.0132		H		1		UNL1		0.1425
46		H		2.2336		-3.2843		-2.3692		H		1		UNL1		0.1608
@<TRIPOS>BOND
1		46		27		1
2		30		29		1
3		45		26		1
4		27		26		ar
5		27		28		ar
6		26		25		ar
7		35		2		1
8		40		16		1
9		29		28		ar
10		29		20		ar
11		36		8		1
12		5		4		1
13		39		15		1
14		28		23		ar
15		16		15		ar
16		16		9		ar
17		6		4		ar
18		6		7		ar
19		34		2		1
20		8		9		1
21		8		7		1
22		15		12		ar
23		4		3		ar
24		9		10		ar
25		7		17		ar
26		12		13		1
27		12		11		ar
28		3		2		1
29		3		18		ar
30		25		44		1
31		25		24		ar
32		10		11		ar
33		10		37		1
34		13		14		3
35		17		18		ar
36		2		1		1
37		11		38		1
38		18		19		1
39		19		20		1
40		20		21		ar
41		23		24		ar
42		23		22		ar
43		24		43		1
44		1		32		1
45		1		31		1
46		1		33		1
47		21		22		ar
48		21		41		1
49		22		42		1

