@<TRIPOS>MOLECULE
WHQ-2014-MCC-5468-3-1g
 46 48 0 0 0
SMALL
MULLIKEN_CHARGES
****
Gaussian 16 #p B3LYP/6-31G* opt
@<TRIPOS>ATOM
1		C		8.2667		-2.5127		-0.8430		C.3		1		UNL1		-0.2175
2		O		6.9010		-2.4116		-1.2163		O.3		1		UNL1		-0.5027
3		C		6.0601		-1.7052		-0.4099		C.ar		1		UNL1		0.3786
4		C		6.4396		-1.0697		0.7779		C.ar		1		UNL1		-0.1923
5		C		5.4828		-0.3748		1.5219		C.ar		1		UNL1		-0.1888
6		C		4.1501		-0.2978		1.1110		C.ar		1		UNL1		0.1871
7		C		3.1347		0.4508		1.9266		C.3		1		UNL1		-0.5354
8		S		2.8337		2.2045		1.3669		S.3		1		UNL1		0.1569
9		C		1.3812		2.0255		0.3624		C.ar		1		UNL1		0.3452
10		N		0.6887		0.9242		0.3020		N.ar		1		UNL1		-0.5409
11		C		-0.4392		0.9158		-0.4933		C.ar		1		UNL1		0.2418
12		C		-1.1529		-0.4461		-0.4637		C.3		1		UNL1		-0.2980
13		C		-1.3332		-0.9876		-1.8178		C.1		1		UNL1		0.3710
14		N		-1.4622		-1.4249		-2.8853		N.1		1		UNL1		-0.4884
15		C		-2.4479		-0.4342		0.3648		C.ar		1		UNL1		0.1502
16		C		-2.3888		0.0321		1.6849		C.ar		1		UNL1		-0.1601
17		C		-3.5324		0.0327		2.4801		C.ar		1		UNL1		-0.1347
18		C		-4.7498		-0.4309		1.9767		C.ar		1		UNL1		-0.1417
19		C		-4.7945		-0.8955		0.6661		C.ar		1		UNL1		0.0763
20		BR		-6.4482		-1.5386		-0.0453		Br		1		UNL1		-0.1169
21		C		-3.6602		-0.9050		-0.1461		C.ar		1		UNL1		-0.2087
22		C		-0.8938		1.9915		-1.2120		C.ar		1		UNL1		0.0699
23		C		-2.1198		2.0140		-2.0828		C.3		1		UNL1		-0.5433
24		C		-0.1171		3.2286		-1.1580		C.ar		1		UNL1		0.5815
25		O		-0.3614		4.2751		-1.7408		O.2		1		UNL1		-0.5101
26		N		1.0260		3.1419		-0.3294		N.ar		1		UNL1		-0.6511
27		C		3.7867		-0.9435		-0.0836		C.ar		1		UNL1		-0.1822
28		C		4.7233		-1.6373		-0.8349		C.ar		1		UNL1		-0.1699
29		H		8.3840		-3.0187		0.1243		H		1		UNL1		0.1536
30		H		8.7458		-3.1084		-1.6219		H		1		UNL1		0.1743
31		H		8.7455		-1.5259		-0.7949		H		1		UNL1		0.1545
32		H		7.4632		-1.1097		1.1322		H		1		UNL1		0.1355
33		H		5.7906		0.1135		2.4442		H		1		UNL1		0.1273
34		H		3.4540		0.5605		2.9660		H		1		UNL1		0.1915
35		H		2.1502		-0.0210		1.9075		H		1		UNL1		0.2230
36		H		-0.4486		-1.1190		0.0410		H		1		UNL1		0.2226
37		H		-1.4463		0.3922		2.0867		H		1		UNL1		0.1515
38		H		-3.4799		0.3955		3.5027		H		1		UNL1		0.1469
39		H		-5.6441		-0.4327		2.5898		H		1		UNL1		0.1585
40		H		-3.7263		-1.2794		-1.1617		H		1		UNL1		0.1812
41		H		-2.4570		3.0464		-2.2005		H		1		UNL1		0.1917
42		H		-1.9039		1.6210		-3.0842		H		1		UNL1		0.1913
43		H		-2.9343		1.4187		-1.6625		H		1		UNL1		0.1664
44		H		1.5936		3.9832		-0.2929		H		1		UNL1		0.3596
45		H		2.7557		-0.8961		-0.4228		H		1		UNL1		0.1468
46		H		4.4465		-2.1402		-1.7561		H		1		UNL1		0.1478
@<TRIPOS>BOND
1		42		23		1
2		14		13		3
3		41		23		1
4		23		43		1
5		23		22		1
6		13		12		1
7		46		28		1
8		25		24		2
9		30		1		1
10		2		1		1
11		2		3		1
12		22		24		ar
13		22		11		ar
14		40		21		1
15		24		26		ar
16		1		31		1
17		1		29		1
18		28		3		ar
19		28		27		ar
20		11		12		1
21		11		10		ar
22		12		36		1
23		12		15		1
24		45		27		1
25		3		4		ar
26		26		44		1
27		26		9		ar
28		21		15		ar
29		21		19		ar
30		27		6		ar
31		20		19		1
32		10		9		ar
33		9		8		1
34		15		16		ar
35		19		18		ar
36		4		32		1
37		4		5		ar
38		6		5		ar
39		6		7		1
40		8		7		1
41		5		33		1
42		16		37		1
43		16		17		ar
44		35		7		1
45		7		34		1
46		18		17		ar
47		18		39		1
48		17		38		1

