@<TRIPOS>MOLECULE
WHQ-2014-SQER-761-57
 48 51 0 0 0
SMALL
MULLIKEN_CHARGES
****
Gaussian 16 #p B3LYP/6-31G* opt
@<TRIPOS>ATOM
1		C		-7.4154		-0.9419		0.0093		C.3		1		UNL1		-0.2838
2		N		-6.2672		-1.8294		0.0722		N.pl3		1		UNL1		-0.6457
3		C		-4.9801		-1.3841		0.0402		C.ar		1		UNL1		0.5241
4		N		-4.7993		-0.0535		0.0644		N.ar		1		UNL1		-0.6135
5		C		-3.5274		0.3705		0.0559		C.ar		1		UNL1		0.7077
6		N		-3.4134		1.7489		0.0871		N.pl3		1		UNL1		-0.7783
7		C		-2.3148		2.6050		0.0942		C.ar		1		UNL1		0.3820
8		C		-0.9726		2.1793		0.0985		C.ar		1		UNL1		-0.1652
9		C		0.0503		3.1191		0.1056		C.ar		1		UNL1		-0.1600
10		C		-0.2245		4.4969		0.1090		C.ar		1		UNL1		0.1297
11		C		0.8383		5.4544		0.1133		C.1		1		UNL1		0.2257
12		N		1.7009		6.2365		0.1154		N.1		1		UNL1		-0.4878
13		C		-1.5657		4.9204		0.1071		C.ar		1		UNL1		-0.1414
14		C		-2.5899		3.9888		0.0999		C.ar		1		UNL1		-0.2059
15		N		-2.4295		-0.3874		0.0196		N.ar		1		UNL1		-0.5742
16		C		-2.6485		-1.7052		-0.0098		C.ar		1		UNL1		0.5094
17		O		-1.5640		-2.5358		-0.0220		O.3		1		UNL1		-0.5807
18		C		-0.2828		-2.0284		-0.2095		C.ar		1		UNL1		0.3681
19		C		0.0685		-1.3990		-1.4288		C.ar		1		UNL1		-0.1428
20		C		1.3680		-1.0024		-1.6362		C.ar		1		UNL1		-0.2055
21		C		2.3696		-1.2223		-0.6505		C.ar		1		UNL1		0.1418
22		C		3.7182		-0.8245		-0.8482		C.ar		1		UNL1		-0.2213
23		C		4.6521		-1.0626		0.1312		C.ar		1		UNL1		0.0790
24		BR		6.4689		-0.5287		-0.1359		Br		1		UNL1		-0.1267
25		C		4.3061		-1.6988		1.3457		C.ar		1		UNL1		-0.1521
26		C		3.0042		-2.0922		1.5549		C.ar		1		UNL1		-0.1904
27		C		2.0018		-1.8694		0.5734		C.ar		1		UNL1		0.1368
28		C		0.6520		-2.2636		0.7684		C.ar		1		UNL1		-0.2440
29		C		-3.9016		-2.3075		-0.0037		C.ar		1		UNL1		0.0581
30		C		-4.1145		-3.7970		-0.0293		C.3		1		UNL1		-0.5607
31		H		-7.3608		-0.1942		0.8048		H		1		UNL1		0.1810
32		H		-8.3202		-1.5393		0.1451		H		1		UNL1		0.1517
33		H		-7.4774		-0.4113		-0.9496		H		1		UNL1		0.1646
34		H		-6.4201		-2.8133		-0.0808		H		1		UNL1		0.3352
35		H		-4.3228		2.1919		0.1064		H		1		UNL1		0.3420
36		H		-0.7486		1.1229		0.0972		H		1		UNL1		0.2001
37		H		1.0819		2.7811		0.1089		H		1		UNL1		0.1588
38		H		-1.7957		5.9811		0.1107		H		1		UNL1		0.1547
39		H		-3.6230		4.3290		0.0975		H		1		UNL1		0.1328
40		H		-0.6939		-1.2364		-2.1826		H		1		UNL1		0.1482
41		H		1.6461		-0.5175		-2.5684		H		1		UNL1		0.1446
42		H		4.0030		-0.3344		-1.7738		H		1		UNL1		0.1560
43		H		5.0683		-1.8696		2.0978		H		1		UNL1		0.1560
44		H		2.7304		-2.5815		2.4861		H		1		UNL1		0.1427
45		H		0.3534		-2.7569		1.6884		H		1		UNL1		0.1437
46		H		-4.6664		-4.1436		0.8558		H		1		UNL1		0.1600
47		H		-4.6834		-4.1152		-0.9154		H		1		UNL1		0.1533
48		H		-3.1588		-4.3227		-0.0500		H		1		UNL1		0.1924
@<TRIPOS>BOND
1		41		20		1
2		40		19		1
3		42		22		1
4		20		19		ar
5		20		21		ar
6		19		18		ar
7		33		1		1
8		47		30		1
9		22		21		ar
10		22		23		ar
11		21		27		ar
12		18		17		1
13		18		28		ar
14		24		23		1
15		34		2		1
16		48		30		1
17		30		29		1
18		30		46		1
19		17		16		1
20		16		29		ar
21		16		15		ar
22		29		3		ar
23		1		2		1
24		1		32		1
25		1		31		1
26		15		5		ar
27		3		4		ar
28		3		2		1
29		5		4		ar
30		5		6		1
31		6		7		1
32		6		35		1
33		7		8		ar
34		7		14		ar
35		36		8		1
36		39		14		1
37		8		9		ar
38		14		13		ar
39		9		37		1
40		9		10		ar
41		13		10		ar
42		13		38		1
43		10		11		1
44		11		12		3
45		23		25		ar
46		27		28		ar
47		27		26		ar
48		28		45		1
49		25		26		ar
50		25		43		1
51		26		44		1

