@<TRIPOS>MOLECULE
WHQ-2014-SQER-761-19
 43 46 0 0 0
SMALL
MULLIKEN_CHARGES
****
Gaussian 16 #p B3LYP/6-31G* opt
@<TRIPOS>ATOM
1		C		-0.8116		4.5878		-0.2138		C.3		1		UNL1		-0.5211
2		C		0.0014		3.3240		-0.2102		C.ar		1		UNL1		0.0868
3		C		1.3810		3.2885		-0.0721		C.ar		1		UNL1		0.0144
4		N		2.1225		2.1675		-0.0610		N.ar		1		UNL1		-0.4870
5		C		1.4404		1.0299		-0.1945		C.ar		1		UNL1		0.6995
6		N		2.0884		-0.1890		-0.1941		N.pl3		1		UNL1		-0.7703
7		C		3.4335		-0.5352		-0.0723		C.ar		1		UNL1		0.3832
8		C		3.7392		-1.9115		-0.1067		C.ar		1		UNL1		-0.2062
9		C		5.0465		-2.3541		0.0042		C.ar		1		UNL1		-0.1407
10		C		6.0955		-1.4294		0.1538		C.ar		1		UNL1		0.1306
11		C		7.4488		-1.8794		0.2681		C.1		1		UNL1		0.2265
12		N		8.5496		-2.2472		0.3606		N.1		1		UNL1		-0.4862
13		C		5.7911		-0.0585		0.1886		C.ar		1		UNL1		-0.1536
14		C		4.4817		0.3922		0.0779		C.ar		1		UNL1		-0.1600
15		N		0.1015		0.9167		-0.3407		N.ar		1		UNL1		-0.5634
16		C		-0.5795		2.0446		-0.3442		C.ar		1		UNL1		0.5337
17		O		-1.9327		2.0092		-0.4877		O.3		1		UNL1		-0.5574
18		C		-2.5754		0.7852		-0.6238		C.ar		1		UNL1		0.3617
19		C		-2.6596		0.2004		-1.9065		C.ar		1		UNL1		-0.1403
20		C		-3.3719		-0.9587		-2.0855		C.ar		1		UNL1		-0.2072
21		C		-4.0329		-1.5840		-0.9951		C.ar		1		UNL1		0.1540
22		C		-4.7753		-2.7826		-1.1663		C.ar		1		UNL1		-0.1961
23		C		-5.4140		-3.3795		-0.1040		C.ar		1		UNL1		-0.1303
24		C		-5.3368		-2.7977		1.1830		C.ar		1		UNL1		-0.1331
25		C		-4.6273		-1.6353		1.3881		C.ar		1		UNL1		-0.1942
26		C		-3.9566		-0.9953		0.3124		C.ar		1		UNL1		0.1229
27		C		-3.2044		0.2089		0.4592		C.ar		1		UNL1		-0.1908
28		CL		-3.0693		0.9800		2.0269		Cl		1		UNL1		0.0118
29		H		-0.1646		5.4616		-0.0882		H		1		UNL1		0.1574
30		H		-1.3672		4.7062		-1.1516		H		1		UNL1		0.1712
31		H		-1.5511		4.5888		0.5952		H		1		UNL1		0.1797
32		H		1.9351		4.2197		0.0388		H		1		UNL1		0.1487
33		H		1.4387		-0.9585		-0.2937		H		1		UNL1		0.3482
34		H		2.9363		-2.6361		-0.2215		H		1		UNL1		0.1361
35		H		5.2649		-3.4168		-0.0239		H		1		UNL1		0.1567
36		H		6.5946		0.6621		0.3043		H		1		UNL1		0.1573
37		H		4.2543		1.4480		0.1062		H		1		UNL1		0.1898
38		H		-2.1554		0.6928		-2.7313		H		1		UNL1		0.1490
39		H		-3.4403		-1.4113		-3.0709		H		1		UNL1		0.1436
40		H		-4.8285		-3.2206		-2.1600		H		1		UNL1		0.1374
41		H		-5.9779		-4.2964		-0.2500		H		1		UNL1		0.1384
42		H		-5.8428		-3.2727		2.0188		H		1		UNL1		0.1398
43		H		-4.5736		-1.1966		2.3778		H		1		UNL1		0.1594
@<TRIPOS>BOND
1		39		20		1
2		38		19		1
3		40		22		1
4		20		19		ar
5		20		21		ar
6		19		18		ar
7		22		21		ar
8		22		23		ar
9		30		1		1
10		21		26		ar
11		18		17		1
12		18		27		ar
13		17		16		1
14		16		15		ar
15		16		2		ar
16		15		5		ar
17		33		6		1
18		41		23		1
19		34		8		1
20		1		2		1
21		1		29		1
22		1		31		1
23		2		3		ar
24		5		6		1
25		5		4		ar
26		6		7		1
27		8		7		ar
28		8		9		ar
29		23		24		ar
30		7		14		ar
31		3		4		ar
32		3		32		1
33		35		9		1
34		9		10		ar
35		14		37		1
36		14		13		ar
37		10		13		ar
38		10		11		1
39		13		36		1
40		11		12		3
41		26		27		ar
42		26		25		ar
43		27		28		1
44		24		25		ar
45		24		42		1
46		25		43		1

