@<TRIPOS>MOLECULE
WHQ-2014-SQER-761-52
 41 44 0 0 0
SMALL
MULLIKEN_CHARGES
****
Gaussian 16 #p B3LYP/6-31G* opt
@<TRIPOS>ATOM
1		N		8.4635		3.0145		-1.5999		N.1		1		UNL1		-0.4839
2		C		7.6785		2.3128		-1.1032		C.1		1		UNL1		0.2280
3		C		6.7151		1.4496		-0.4914		C.ar		1		UNL1		0.1319
4		C		7.1299		0.3920		0.3373		C.ar		1		UNL1		-0.1404
5		C		6.1916		-0.4385		0.9266		C.ar		1		UNL1		-0.2049
6		C		4.8123		-0.2430		0.7103		C.ar		1		UNL1		0.3811
7		N		3.9480		-1.1342		1.3498		N.pl3		1		UNL1		-0.7646
8		C		2.5765		-1.2429		1.3761		C.ar		1		UNL1		0.6978
9		N		2.1319		-2.2694		2.1318		N.ar		1		UNL1		-0.4910
10		C		0.8079		-2.4041		2.1836		C.ar		1		UNL1		0.0678
11		C		-0.0848		-1.5656		1.5182		C.ar		1		UNL1		-0.2143
12		C		0.5118		-0.5478		0.7701		C.ar		1		UNL1		0.5481
13		O		-0.1873		0.3886		0.0608		O.3		1		UNL1		-0.5286
14		C		-1.5635		0.3102		-0.0230		C.ar		1		UNL1		0.3063
15		C		-2.3259		1.1632		0.7399		C.ar		1		UNL1		-0.2358
16		C		-3.7376		1.1859		0.6165		C.ar		1		UNL1		0.1468
17		C		-4.5517		2.0558		1.3914		C.ar		1		UNL1		-0.1929
18		C		-5.9176		2.0538		1.2535		C.ar		1		UNL1		-0.1408
19		C		-6.5396		1.1717		0.3221		C.ar		1		UNL1		0.1326
20		C		-7.9671		1.1768		0.1870		C.1		1		UNL1		0.2397
21		N		-9.1258		1.1856		0.0838		N.1		1		UNL1		-0.4709
22		C		-5.7727		0.3134		-0.4487		C.ar		1		UNL1		-0.2112
23		C		-4.3623		0.3003		-0.3200		C.ar		1		UNL1		0.1506
24		C		-3.5517		-0.5673		-1.0996		C.ar		1		UNL1		-0.2373
25		C		-2.1849		-0.5625		-0.9591		C.ar		1		UNL1		0.0668
26		BR		-1.1087		-1.7146		-2.0168		Br		1		UNL1		-0.0790
27		N		1.8235		-0.3737		0.6917		N.ar		1		UNL1		-0.5322
28		C		4.3943		0.8141		-0.1192		C.ar		1		UNL1		-0.1622
29		C		5.3411		1.6438		-0.7075		C.ar		1		UNL1		-0.1537
30		H		8.1881		0.2285		0.5139		H		1		UNL1		0.1588
31		H		6.5238		-1.2532		1.5659		H		1		UNL1		0.1382
32		H		4.3854		-1.8539		1.9115		H		1		UNL1		0.3497
33		H		0.4349		-3.2270		2.7907		H		1		UNL1		0.1602
34		H		-1.1559		-1.7002		1.5833		H		1		UNL1		0.1596
35		H		-1.8262		1.8306		1.4355		H		1		UNL1		0.1640
36		H		-4.0765		2.7282		2.1003		H		1		UNL1		0.1545
37		H		-6.5371		2.7184		1.8462		H		1		UNL1		0.1664
38		H		-6.2519		-0.3550		-1.1574		H		1		UNL1		0.1684
39		H		-4.0177		-1.2351		-1.8167		H		1		UNL1		0.1713
40		H		3.3400		0.9726		-0.2926		H		1		UNL1		0.1952
41		H		5.0123		2.4572		-1.3466		H		1		UNL1		0.1597
@<TRIPOS>BOND
1		26		25		1
2		39		24		1
3		1		2		3
4		41		29		1
5		38		22		1
6		2		3		1
7		24		25		ar
8		24		23		ar
9		25		14		ar
10		29		3		ar
11		29		28		ar
12		3		4		ar
13		22		23		ar
14		22		19		ar
15		23		16		ar
16		40		28		1
17		28		6		ar
18		14		13		1
19		14		15		ar
20		13		12		1
21		21		20		3
22		20		19		1
23		19		18		ar
24		4		30		1
25		4		5		ar
26		16		15		ar
27		16		17		ar
28		27		12		ar
29		27		8		ar
30		6		5		ar
31		6		7		1
32		15		35		1
33		12		11		ar
34		5		31		1
35		18		17		ar
36		18		37		1
37		7		8		1
38		7		32		1
39		8		9		ar
40		17		36		1
41		11		34		1
42		11		10		ar
43		9		10		ar
44		10		33		1

