@<TRIPOS>MOLECULE
WHQ-2013-BMC-6477-3-7q
 42 45 0 0 0
SMALL
MULLIKEN_CHARGES
****
Gaussian 16 #p B3LYP/6-31G* opt
@<TRIPOS>ATOM
1		C		9.0523		-0.9852		0.8069		C.3		1		UNL1		-0.2177
2		O		8.2528		-0.8447		-0.3577		O.3		1		UNL1		-0.5038
3		C		6.9051		-0.7118		-0.2053		C.ar		1		UNL1		0.3791
4		C		6.2380		-0.7054		1.0256		C.ar		1		UNL1		-0.1942
5		C		4.8490		-0.5643		1.0547		C.ar		1		UNL1		-0.1738
6		C		4.1024		-0.4329		-0.1193		C.ar		1		UNL1		0.1387
7		C		2.6065		-0.2864		-0.0728		C.3		1		UNL1		-0.4928
8		S		2.1729		1.5239		-0.0294		S.3		1		UNL1		0.1540
9		C		0.4035		1.4294		-0.0090		C.ar		1		UNL1		0.3277
10		N		-0.2191		0.2906		-0.0186		N.ar		1		UNL1		-0.5164
11		C		-1.5940		0.3247		-0.0011		C.ar		1		UNL1		0.1754
12		C		-2.3384		1.4769		0.0265		C.ar		1		UNL1		0.0471
13		C		-1.6496		2.7643		0.0381		C.ar		1		UNL1		0.5921
14		O		-2.1794		3.8671		0.0622		O.2		1		UNL1		-0.5092
15		N		-0.2489		2.6352		0.0179		N.ar		1		UNL1		-0.6586
16		C		-3.8332		1.5186		0.0459		C.3		1		UNL1		-0.4240
17		C		-4.4871		0.1665		0.0326		C.ar		1		UNL1		0.0460
18		C		-5.8807		0.0630		0.0484		C.ar		1		UNL1		0.3357
19		F		-6.6017		1.2038		0.0755		F		1		UNL1		-0.2871
20		C		-6.5536		-1.1478		0.0377		C.ar		1		UNL1		-0.2669
21		C		-5.7845		-2.3115		0.0097		C.ar		1		UNL1		0.3963
22		F		-6.4230		-3.4966		-0.0011		F		1		UNL1		-0.2911
23		C		-4.4029		-2.2787		-0.0071		C.ar		1		UNL1		-0.2451
24		C		-3.7565		-1.0329		0.0046		C.ar		1		UNL1		0.0411
25		C		-2.2648		-1.0206		-0.0137		C.2		1		UNL1		0.3664
26		O		-1.6139		-2.0531		-0.0376		O.2		1		UNL1		-0.4597
27		C		4.7895		-0.4391		-1.3447		C.ar		1		UNL1		-0.1669
28		C		6.1690		-0.5777		-1.3930		C.ar		1		UNL1		-0.1710
29		H		8.9674		-0.1085		1.4624		H		1		UNL1		0.1546
30		H		10.0811		-1.0733		0.4539		H		1		UNL1		0.1735
31		H		8.7847		-1.8870		1.3732		H		1		UNL1		0.1549
32		H		6.7816		-0.8116		1.9572		H		1		UNL1		0.1365
33		H		4.3405		-0.5625		2.0160		H		1		UNL1		0.1365
34		H		2.1142		-0.7114		-0.9491		H		1		UNL1		0.2140
35		H		2.1675		-0.7434		0.8154		H		1		UNL1		0.2120
36		H		0.2680		3.5094		0.0236		H		1		UNL1		0.3583
37		H		-4.1650		2.0945		0.9223		H		1		UNL1		0.2029
38		H		-4.1865		2.1217		-0.8034		H		1		UNL1		0.2030
39		H		-7.6365		-1.1869		0.0505		H		1		UNL1		0.1704
40		H		-3.8159		-3.1892		-0.0288		H		1		UNL1		0.1801
41		H		4.2315		-0.3382		-2.2726		H		1		UNL1		0.1379
42		H		6.7028		-0.5894		-2.3380		H		1		UNL1		0.1441
@<TRIPOS>BOND
1		42		28		1
2		41		27		1
3		28		27		ar
4		28		3		ar
5		27		6		ar
6		34		7		1
7		38		16		1
8		2		3		1
9		2		1		1
10		3		4		ar
11		6		7		1
12		6		5		ar
13		7		8		1
14		7		35		1
15		26		25		2
16		8		9		1
17		40		23		1
18		10		9		ar
19		10		11		ar
20		25		11		1
21		25		24		1
22		9		15		ar
23		23		24		ar
24		23		21		ar
25		22		21		1
26		11		12		ar
27		24		17		ar
28		21		20		ar
29		15		36		1
30		15		13		ar
31		12		13		ar
32		12		16		1
33		17		16		1
34		17		18		ar
35		20		18		ar
36		20		39		1
37		13		14		2
38		16		37		1
39		18		19		1
40		30		1		1
41		1		31		1
42		1		29		1
43		4		5		ar
44		4		32		1
45		5		33		1

