@<TRIPOS>MOLECULE
WHQ-2015-BMC-624-3-3w
 45 47 0 0 0
SMALL
MULLIKEN_CHARGES
****
Gaussian 16 #p B3LYP/6-31G* opt
@<TRIPOS>ATOM
1		C		-0.8775		3.7982		-0.0002		C.3		1		UNL1		-0.5302
2		C		0.5036		3.2047		-0.0001		C.ar		1		UNL1		0.0824
3		C		1.6715		3.9629		-0.0002		C.ar		1		UNL1		0.0177
4		N		2.9069		3.4536		-0.0001		N.ar		1		UNL1		-0.4924
5		C		2.9845		2.1136		0.0002		C.ar		1		UNL1		0.6955
6		N		4.2771		1.6344		0.0004		N.pl3		1		UNL1		-0.7684
7		C		4.8182		0.3490		0.0001		C.ar		1		UNL1		0.3831
8		C		4.0600		-0.8359		0.0004		C.ar		1		UNL1		-0.1611
9		C		4.7003		-2.0691		0.0002		C.ar		1		UNL1		-0.1559
10		C		6.1015		-2.1600		-0.0003		C.ar		1		UNL1		0.1320
11		C		6.7495		-3.4358		-0.0005		C.1		1		UNL1		0.2289
12		N		7.2786		-4.4727		-0.0007		N.1		1		UNL1		-0.4816
13		C		6.8587		-0.9749		-0.0006		C.ar		1		UNL1		-0.1398
14		C		6.2254		0.2563		-0.0003		C.ar		1		UNL1		-0.2036
15		N		1.9444		1.2621		0.0003		N.ar		1		UNL1		-0.5736
16		C		0.7400		1.8182		0.0002		C.ar		1		UNL1		0.5584
17		O		-0.3488		1.0120		0.0003		O.2		1		UNL1		-0.5341
18		C		-0.1516		-0.4067		0.0005		C.3		1		UNL1		-0.1127
19		C		-1.4991		-1.1268		0.0006		C.2		1		UNL1		0.5831
20		O		-1.5245		-2.3471		0.0007		O.2		1		UNL1		-0.4909
21		N		-2.5941		-0.3022		0.0004		N.am		1		UNL1		-0.7355
22		C		-3.9437		-0.6637		0.0002		C.ar		1		UNL1		0.3238
23		C		-4.4321		-1.9793		0.0004		C.ar		1		UNL1		-0.1673
24		C		-5.8046		-2.2106		0.0002		C.ar		1		UNL1		-0.1491
25		C		-6.7174		-1.1439		-0.0002		C.ar		1		UNL1		0.1364
26		C		-8.1275		-1.3934		-0.0004		C.1		1		UNL1		0.2354
27		N		-9.2732		-1.5960		-0.0006		N.1		1		UNL1		-0.4728
28		C		-6.2405		0.1793		-0.0005		C.ar		1		UNL1		-0.2127
29		C		-4.8779		0.3855		-0.0002		C.ar		1		UNL1		0.3154
30		F		-4.3909		1.6522		-0.0005		F		1		UNL1		-0.2985
31		H		-1.4519		3.4894		0.8817		H		1		UNL1		0.1718
32		H		-1.4518		3.4892		-0.8822		H		1		UNL1		0.1718
33		H		-0.8254		4.8913		-0.0004		H		1		UNL1		0.1655
34		H		1.6067		5.0505		-0.0004		H		1		UNL1		0.1533
35		H		4.9443		2.3960		0.0001		H		1		UNL1		0.3510
36		H		2.9821		-0.7784		0.0008		H		1		UNL1		0.1818
37		H		4.1074		-2.9783		0.0005		H		1		UNL1		0.1612
38		H		7.9425		-1.0283		-0.0009		H		1		UNL1		0.1609
39		H		6.8222		1.1654		-0.0006		H		1		UNL1		0.1404
40		H		0.4112		-0.7190		-0.8845		H		1		UNL1		0.2021
41		H		0.4110		-0.7187		0.8858		H		1		UNL1		0.2021
42		H		-2.4012		0.6921		0.0002		H		1		UNL1		0.3733
43		H		-3.7279		-2.7994		0.0008		H		1		UNL1		0.2064
44		H		-6.1758		-3.2297		0.0004		H		1		UNL1		0.1689
45		H		-6.9151		1.0276		-0.0008		H		1		UNL1		0.1773
@<TRIPOS>BOND
1		40		18		1
2		32		1		1
3		38		13		1
4		45		28		1
5		12		11		3
6		27		26		3
7		39		14		1
8		13		14		ar
9		13		10		ar
10		11		10		1
11		30		29		1
12		28		29		ar
13		28		25		ar
14		26		25		1
15		33		1		1
16		34		3		1
17		14		7		ar
18		10		9		ar
19		29		22		ar
20		1		2		1
21		1		31		1
22		25		24		ar
23		3		2		ar
24		3		4		ar
25		2		16		ar
26		4		5		ar
27		35		6		1
28		7		6		1
29		7		8		ar
30		22		21		1
31		22		23		ar
32		42		21		1
33		5		15		ar
34		5		6		1
35		16		17		1
36		16		15		ar
37		24		44		1
38		24		23		ar
39		9		8		ar
40		9		37		1
41		17		18		1
42		21		19		1
43		23		43		1
44		8		36		1
45		18		19		1
46		18		41		1
47		19		20		2

