@<TRIPOS>MOLECULE
WHQ-2015-BMC-624-3-3o
 44 46 0 0 0
SMALL
MULLIKEN_CHARGES
****
Gaussian 16 #p B3LYP/6-31G* opt
@<TRIPOS>ATOM
1		C		-0.8881		3.1493		-0.0004		C.3		1		UNL1		-0.5310
2		C		0.2582		2.1774		-0.0006		C.ar		1		UNL1		0.0856
3		C		1.5913		2.5580		-0.0002		C.ar		1		UNL1		0.0163
4		N		2.6322		1.7082		-0.0004		N.ar		1		UNL1		-0.4868
5		C		2.3154		0.4137		-0.0011		C.ar		1		UNL1		0.7045
6		N		3.2964		-0.5547		-0.0014		N.pl3		1		UNL1		-0.7680
7		C		4.6906		-0.4774		-0.0005		C.ar		1		UNL1		0.3820
8		C		5.3911		-1.7007		-0.0004		C.ar		1		UNL1		-0.2063
9		C		6.7757		-1.7285		0.0004		C.ar		1		UNL1		-0.1402
10		C		7.5061		-0.5269		0.0012		C.ar		1		UNL1		0.1317
11		C		8.9369		-0.5472		0.0021		C.1		1		UNL1		0.2279
12		N		10.1009		-0.5648		0.0028		N.1		1		UNL1		-0.4837
13		C		6.8079		0.6917		0.0011		C.ar		1		UNL1		-0.1533
14		C		5.4189		0.7264		0.0003		C.ar		1		UNL1		-0.1593
15		N		1.0624		-0.0984		-0.0015		N.ar		1		UNL1		-0.5856
16		C		0.0733		0.7760		-0.0013		C.ar		1		UNL1		0.5592
17		O		-1.2017		0.3249		-0.0018		O.3		1		UNL1		-0.5319
18		C		-1.4160		-1.0956		-0.0022		C.3		1		UNL1		-0.1077
19		C		-2.9096		-1.4210		-0.0014		C.2		1		UNL1		0.5763
20		O		-3.2468		-2.5972		-0.0014		O.2		1		UNL1		-0.5032
21		N		-3.7432		-0.3408		-0.0007		N.am		1		UNL1		-0.7249
22		C		-5.1559		-0.3154		0.0001		C.ar		1		UNL1		0.3582
23		C		-5.7776		0.9425		0.0001		C.ar		1		UNL1		-0.1964
24		C		-7.1652		1.0513		0.0009		C.ar		1		UNL1		-0.2007
25		C		-7.9268		-0.1112		0.0018		C.ar		1		UNL1		0.3829
26		F		-9.2737		-0.0142		0.0026		F		1		UNL1		-0.2984
27		C		-7.3344		-1.3675		0.0017		C.ar		1		UNL1		-0.2130
28		C		-5.9443		-1.4767		0.0009		C.ar		1		UNL1		-0.1594
29		H		-1.5260		3.0217		-0.8838		H		1		UNL1		0.1685
30		H		-0.5188		4.1795		0.0003		H		1		UNL1		0.1658
31		H		-1.5265		3.0207		0.8824		H		1		UNL1		0.1685
32		H		1.8490		3.6164		0.0004		H		1		UNL1		0.1507
33		H		2.9057		-1.4880		-0.0018		H		1		UNL1		0.3465
34		H		4.8370		-2.6366		-0.0010		H		1		UNL1		0.1375
35		H		7.3004		-2.6784		0.0005		H		1		UNL1		0.1592
36		H		7.3643		1.6238		0.0017		H		1		UNL1		0.1589
37		H		4.8884		1.6675		0.0002		H		1		UNL1		0.1900
38		H		-0.9572		-1.5504		0.8805		H		1		UNL1		0.1960
39		H		-0.9583		-1.5497		-0.8859		H		1		UNL1		0.1959
40		H		-3.2791		0.5586		-0.0008		H		1		UNL1		0.3572
41		H		-5.1714		1.8458		-0.0006		H		1		UNL1		0.1316
42		H		-7.6559		2.0188		0.0010		H		1		UNL1		0.1500
43		H		-7.9606		-2.2536		0.0024		H		1		UNL1		0.1536
44		H		-5.4653		-2.4457		0.0008		H		1		UNL1		0.1953
@<TRIPOS>BOND
1		39		18		1
2		29		1		1
3		18		17		1
4		18		19		1
5		18		38		1
6		17		16		1
7		33		6		1
8		15		16		ar
9		15		5		ar
10		6		5		1
11		6		7		1
12		20		19		2
13		19		21		1
14		16		2		ar
15		5		4		ar
16		34		8		1
17		40		21		1
18		21		22		1
19		2		1		1
20		2		3		ar
21		41		23		1
22		7		8		ar
23		7		14		ar
24		1		30		1
25		1		31		1
26		8		9		ar
27		4		3		ar
28		3		32		1
29		22		23		ar
30		22		28		ar
31		23		24		ar
32		37		14		1
33		14		13		ar
34		9		35		1
35		9		10		ar
36		44		28		1
37		28		27		ar
38		24		42		1
39		24		25		ar
40		13		10		ar
41		13		36		1
42		10		11		1
43		27		25		ar
44		27		43		1
45		25		26		1
46		11		12		3

