@<TRIPOS>MOLECULE
WHQ-2014-SQER-761-51
 41 44 0 0 0
SMALL
MULLIKEN_CHARGES
****
Gaussian 16 #p B3LYP/6-31G* opt
@<TRIPOS>ATOM
1		N		-10.3379		-0.1567		0.9898		N.1		1		UNL1		-0.4839
2		C		-9.2138		-0.0881		0.6947		C.1		1		UNL1		0.2279
3		C		-7.8325		-0.0037		0.3305		C.ar		1		UNL1		0.1318
4		C		-7.4420		-0.1119		-1.0159		C.ar		1		UNL1		-0.1403
5		C		-6.1033		-0.0290		-1.3606		C.ar		1		UNL1		-0.2055
6		C		-5.1120		0.1641		-0.3770		C.ar		1		UNL1		0.3818
7		N		-3.7918		0.2348		-0.8266		N.pl3		1		UNL1		-0.7666
8		C		-2.5945		0.4106		-0.1694		C.ar		1		UNL1		0.7014
9		N		-2.5657		0.5517		1.1627		N.ar		1		UNL1		-0.4823
10		C		-1.3461		0.7143		1.6907		C.ar		1		UNL1		0.0688
11		C		-0.1752		0.7397		0.9469		C.ar		1		UNL1		-0.2125
12		C		-0.3504		0.5820		-0.4364		C.ar		1		UNL1		0.5461
13		O		0.6770		0.5957		-1.3380		O.3		1		UNL1		-0.5262
14		C		1.9815		0.7399		-0.9082		C.ar		1		UNL1		0.2960
15		C		2.5716		2.0187		-1.0369		C.ar		1		UNL1		-0.1537
16		C		3.8917		2.2039		-0.7115		C.ar		1		UNL1		-0.1947
17		C		4.6810		1.1203		-0.2422		C.ar		1		UNL1		0.1516
18		C		6.0435		1.3019		0.0977		C.ar		1		UNL1		-0.2186
19		C		6.8092		0.2424		0.5524		C.ar		1		UNL1		0.1406
20		C		8.1872		0.4419		0.8944		C.1		1		UNL1		0.2386
21		N		9.3055		0.5974		1.1744		N.1		1		UNL1		-0.4705
22		C		6.2266		-1.0499		0.6821		C.ar		1		UNL1		-0.1396
23		C		4.9077		-1.2513		0.3585		C.ar		1		UNL1		-0.1919
24		C		4.0944		-0.1843		-0.1110		C.ar		1		UNL1		0.1027
25		C		2.7216		-0.3383		-0.4623		C.ar		1		UNL1		-0.0159
26		BR		1.8685		-2.0330		-0.3289		Br		1		UNL1		-0.0770
27		N		-1.5322		0.4207		-1.0001		N.ar		1		UNL1		-0.5424
28		C		-5.5001		0.2724		0.9710		C.ar		1		UNL1		-0.1591
29		C		-6.8448		0.1884		1.3104		C.ar		1		UNL1		-0.1532
30		H		-8.1932		-0.2608		-1.7848		H		1		UNL1		0.1590
31		H		-5.8131		-0.1142		-2.4052		H		1		UNL1		0.1386
32		H		-3.6578		0.1399		-1.8255		H		1		UNL1		0.3507
33		H		-1.3097		0.8298		2.7722		H		1		UNL1		0.1598
34		H		0.7950		0.8700		1.4067		H		1		UNL1		0.1608
35		H		1.9546		2.8312		-1.4061		H		1		UNL1		0.1658
36		H		4.3489		3.1841		-0.8111		H		1		UNL1		0.1575
37		H		6.4862		2.2882		-0.0024		H		1		UNL1		0.1673
38		H		6.8367		-1.8726		1.0396		H		1		UNL1		0.1672
39		H		4.4697		-2.2373		0.4599		H		1		UNL1		0.1719
40		H		-4.7459		0.4199		1.7302		H		1		UNL1		0.1896
41		H		-7.1378		0.2727		2.3521		H		1		UNL1		0.1587
@<TRIPOS>BOND
1		31		5		1
2		32		7		1
3		30		4		1
4		35		15		1
5		5		4		ar
6		5		6		ar
7		13		14		1
8		13		12		1
9		15		14		ar
10		15		16		ar
11		4		3		ar
12		27		12		ar
13		27		8		ar
14		14		25		ar
15		7		6		1
16		7		8		1
17		36		16		1
18		16		17		ar
19		25		26		1
20		25		24		ar
21		12		11		ar
22		6		28		ar
23		17		24		ar
24		17		18		ar
25		8		9		ar
26		24		23		ar
27		37		18		1
28		18		19		ar
29		3		2		1
30		3		29		ar
31		23		39		1
32		23		22		ar
33		19		22		ar
34		19		20		1
35		22		38		1
36		2		1		3
37		20		21		3
38		11		34		1
39		11		10		ar
40		28		29		ar
41		28		40		1
42		9		10		ar
43		29		41		1
44		10		33		1

