@<TRIPOS>MOLECULE
WHQ-2014-SQER-761-13
 40 43 0 0 0
SMALL
MULLIKEN_CHARGES
****
Gaussian 16 #p B3LYP/6-31G* opt
@<TRIPOS>ATOM
1		N		9.4381		0.6625		0.3039		N.1		1		UNL1		-0.4859
2		C		8.3023		0.4174		0.2314		C.1		1		UNL1		0.2268
3		C		6.9067		0.1148		0.1421		C.ar		1		UNL1		0.1308
4		C		6.4751		-1.2075		-0.0651		C.ar		1		UNL1		-0.1406
5		C		5.1227		-1.4926		-0.1505		C.ar		1		UNL1		-0.2058
6		C		4.1568		-0.4720		-0.0326		C.ar		1		UNL1		0.3827
7		N		2.8210		-0.8613		-0.1325		N.pl3		1		UNL1		-0.7660
8		C		1.6377		-0.1555		-0.0669		C.ar		1		UNL1		0.6980
9		N		1.6512		1.1702		0.1260		N.ar		1		UNL1		-0.4849
10		C		0.4426		1.7462		0.1764		C.ar		1		UNL1		0.0676
11		C		-0.7528		1.0569		0.0403		C.ar		1		UNL1		-0.2216
12		C		-0.6240		-0.3286		-0.1621		C.ar		1		UNL1		0.5357
13		O		-1.6775		-1.1737		-0.3035		O.3		1		UNL1		-0.5311
14		C		-2.9713		-0.6605		-0.3930		C.ar		1		UNL1		0.3163
15		C		-3.4143		-0.1242		-1.6256		C.ar		1		UNL1		-0.1529
16		C		-4.7141		0.3103		-1.7420		C.ar		1		UNL1		-0.2038
17		C		-5.6192		0.2244		-0.6490		C.ar		1		UNL1		0.1456
18		C		-6.9664		0.6644		-0.7446		C.ar		1		UNL1		-0.1924
19		C		-7.8187		0.5634		0.3317		C.ar		1		UNL1		-0.1334
20		C		-7.3614		0.0154		1.5553		C.ar		1		UNL1		-0.1348
21		C		-6.0619		-0.4213		1.6812		C.ar		1		UNL1		-0.1883
22		C		-5.1569		-0.3301		0.5899		C.ar		1		UNL1		0.1276
23		C		-3.8091		-0.7685		0.6894		C.ar		1		UNL1		-0.2325
24		N		0.5504		-0.9366		-0.2158		N.ar		1		UNL1		-0.5435
25		C		4.5865		0.8521		0.1747		C.ar		1		UNL1		-0.1595
26		C		5.9447		1.1316		0.2595		C.ar		1		UNL1		-0.1535
27		H		7.2056		-2.0046		-0.1579		H		1		UNL1		0.1573
28		H		4.8009		-2.5190		-0.3108		H		1		UNL1		0.1374
29		H		2.6557		-1.8488		-0.2812		H		1		UNL1		0.3492
30		H		0.4382		2.8227		0.3373		H		1		UNL1		0.1562
31		H		-1.7121		1.5532		0.0936		H		1		UNL1		0.1642
32		H		-2.7233		-0.0755		-2.4613		H		1		UNL1		0.1501
33		H		-5.0670		0.7214		-2.6844		H		1		UNL1		0.1428
34		H		-7.3140		1.0833		-1.6859		H		1		UNL1		0.1357
35		H		-8.8470		0.9033		0.2463		H		1		UNL1		0.1367
36		H		-8.0436		-0.0598		2.3976		H		1		UNL1		0.1374
37		H		-5.7103		-0.8429		2.6196		H		1		UNL1		0.1372
38		H		-3.4395		-1.1982		1.6158		H		1		UNL1		0.1485
39		H		3.8520		1.6391		0.2659		H		1		UNL1		0.1893
40		H		6.2691		2.1550		0.4195		H		1		UNL1		0.1572
@<TRIPOS>BOND
1		33		16		1
2		32		15		1
3		16		15		ar
4		16		17		ar
5		34		18		1
6		15		14		ar
7		18		17		ar
8		18		19		ar
9		17		22		ar
10		14		13		1
11		14		23		ar
12		28		5		1
13		13		12		1
14		29		7		1
15		24		12		ar
16		24		8		ar
17		12		11		ar
18		27		4		1
19		5		4		ar
20		5		6		ar
21		7		8		1
22		7		6		1
23		8		9		ar
24		4		3		ar
25		6		25		ar
26		11		31		1
27		11		10		ar
28		9		10		ar
29		3		2		1
30		3		26		ar
31		25		26		ar
32		25		39		1
33		10		30		1
34		2		1		3
35		35		19		1
36		26		40		1
37		19		20		ar
38		22		23		ar
39		22		21		ar
40		23		38		1
41		20		21		ar
42		20		36		1
43		21		37		1

