@<TRIPOS>MOLECULE
WHQ-2014-SQER-761-37
 46 49 0 0 0
SMALL
MULLIKEN_CHARGES
****
Gaussian 16 #p B3LYP/6-31G* opt
@<TRIPOS>ATOM
1		C		1.3309		4.6167		-1.1358		C.3		1		UNL1		-0.4423
2		C		0.8852		4.1276		0.2544		C.3		1		UNL1		-0.3320
3		C		0.1342		2.8200		0.2099		C.ar		1		UNL1		0.0895
4		C		-1.2468		2.6717		0.1257		C.ar		1		UNL1		0.0660
5		CL		-2.2752		4.1004		0.0786		Cl		1		UNL1		0.0132
6		N		-1.9024		1.5165		0.0764		N.ar		1		UNL1		-0.4920
7		C		-1.1423		0.4202		0.1052		C.ar		1		UNL1		0.6990
8		N		-1.7161		-0.8301		0.0607		N.pl3		1		UNL1		-0.7717
9		C		-3.0454		-1.2523		-0.0156		C.ar		1		UNL1		0.3814
10		C		-3.2628		-2.6446		-0.0498		C.ar		1		UNL1		-0.2058
11		C		-4.5446		-3.1635		-0.1239		C.ar		1		UNL1		-0.1403
12		C		-5.6540		-2.3006		-0.1662		C.ar		1		UNL1		0.1320
13		C		-6.9814		-2.8298		-0.2425		C.1		1		UNL1		0.2283
14		N		-8.0602		-3.2629		-0.3043		N.1		1		UNL1		-0.4838
15		C		-5.4370		-0.9135		-0.1323		C.ar		1		UNL1		-0.1538
16		C		-4.1535		-0.3864		-0.0580		C.ar		1		UNL1		-0.1624
17		N		0.2033		0.3948		0.1732		N.ar		1		UNL1		-0.5604
18		C		0.8030		1.5706		0.2193		C.ar		1		UNL1		0.5378
19		O		2.1562		1.6231		0.2695		O.3		1		UNL1		-0.5659
20		C		2.9018		0.4440		0.3916		C.ar		1		UNL1		0.3571
21		C		2.8929		-0.2664		1.6141		C.ar		1		UNL1		-0.1397
22		C		3.7064		-1.3651		1.7563		C.ar		1		UNL1		-0.2095
23		C		4.5567		-1.7945		0.7003		C.ar		1		UNL1		0.1468
24		C		5.4072		-2.9250		0.8236		C.ar		1		UNL1		-0.1936
25		C		6.2211		-3.3120		-0.2174		C.ar		1		UNL1		-0.1339
26		C		6.2215		-2.5829		-1.4316		C.ar		1		UNL1		-0.1354
27		C		5.4097		-1.4810		-1.5831		C.ar		1		UNL1		-0.1890
28		C		4.5577		-1.0568		-0.5286		C.ar		1		UNL1		0.1268
29		C		3.7069		0.0742		-0.6547		C.ar		1		UNL1		-0.2361
30		H		0.4689		4.7814		-1.7909		H		1		UNL1		0.1586
31		H		1.8784		5.5619		-1.0503		H		1		UNL1		0.1514
32		H		1.9903		3.8852		-1.6144		H		1		UNL1		0.1542
33		H		0.2543		4.8872		0.7249		H		1		UNL1		0.1665
34		H		1.7666		4.0012		0.8913		H		1		UNL1		0.1642
35		H		-1.0177		-1.5624		0.0828		H		1		UNL1		0.3512
36		H		-2.4120		-3.3214		-0.0179		H		1		UNL1		0.1379
37		H		-4.6958		-4.2378		-0.1497		H		1		UNL1		0.1586
38		H		-6.2877		-0.2402		-0.1647		H		1		UNL1		0.1610
39		H		-3.9984		0.6825		-0.0330		H		1		UNL1		0.1989
40		H		2.2487		0.0671		2.4206		H		1		UNL1		0.1440
41		H		3.7107		-1.9197		2.6914		H		1		UNL1		0.1398
42		H		5.4050		-3.4816		1.7578		H		1		UNL1		0.1340
43		H		6.8673		-4.1789		-0.1109		H		1		UNL1		0.1352
44		H		6.8680		-2.8974		-2.2463		H		1		UNL1		0.1358
45		H		5.4097		-0.9204		-2.5147		H		1		UNL1		0.1350
46		H		3.6956		0.6504		-1.5750		H		1		UNL1		0.1435
@<TRIPOS>BOND
1		45		27		1
2		44		26		1
3		30		1		1
4		32		1		1
5		27		26		ar
6		27		28		ar
7		46		29		1
8		26		25		ar
9		1		31		1
10		1		2		1
11		29		28		ar
12		29		20		ar
13		28		23		ar
14		14		13		3
15		13		12		1
16		25		43		1
17		25		24		ar
18		12		15		ar
19		12		11		ar
20		38		15		1
21		37		11		1
22		15		16		ar
23		11		10		ar
24		16		39		1
25		16		9		ar
26		10		36		1
27		10		9		ar
28		9		8		1
29		8		35		1
30		8		7		1
31		6		7		ar
32		6		4		ar
33		5		4		1
34		7		17		ar
35		4		3		ar
36		17		18		ar
37		3		18		ar
38		3		2		1
39		18		19		1
40		2		33		1
41		2		34		1
42		19		20		1
43		20		21		ar
44		23		24		ar
45		23		22		ar
46		24		42		1
47		21		22		ar
48		21		40		1
49		22		41		1

