@<TRIPOS>MOLECULE
WHQ-2014-SQER-761-28
 43 46 0 0 0
SMALL
MULLIKEN_CHARGES
****
Gaussian 16 #p B3LYP/6-31G* opt
@<TRIPOS>ATOM
1		C		-1.5331		5.1332		0.0391		C.3		1		UNL1		-0.5199
2		C		-1.9703		3.6956		0.0239		C.ar		1		UNL1		0.0833
3		C		-3.2950		3.2884		0.0766		C.ar		1		UNL1		0.0148
4		N		-3.7056		2.0087		0.0640		N.ar		1		UNL1		-0.4869
5		C		-2.7340		1.0981		-0.0041		C.ar		1		UNL1		0.6973
6		N		-3.0276		-0.2505		-0.0206		N.pl3		1		UNL1		-0.7695
7		C		-4.2348		-0.9477		0.0237		C.ar		1		UNL1		0.3826
8		C		-4.1544		-2.3553		-0.0020		C.ar		1		UNL1		-0.2064
9		C		-5.2980		-3.1352		0.0366		C.ar		1		UNL1		-0.1406
10		C		-6.5650		-2.5286		0.1024		C.ar		1		UNL1		0.1309
11		C		-7.7512		-3.3277		0.1422		C.1		1		UNL1		0.2269
12		N		-8.7156		-3.9791		0.1743		N.1		1		UNL1		-0.4854
13		C		-6.6451		-1.1264		0.1282		C.ar		1		UNL1		-0.1536
14		C		-5.5017		-0.3383		0.0898		C.ar		1		UNL1		-0.1601
15		N		-1.4075		1.3511		-0.0610		N.ar		1		UNL1		-0.5634
16		C		-1.0550		2.6219		-0.0466		C.ar		1		UNL1		0.5255
17		O		0.2608		2.9570		-0.0869		O.3		1		UNL1		-0.5624
18		C		1.2357		1.9716		-0.2552		C.ar		1		UNL1		0.3604
19		C		1.3336		1.2739		-1.4822		C.ar		1		UNL1		-0.1381
20		C		2.3612		0.3811		-1.6699		C.ar		1		UNL1		-0.2062
21		C		3.3290		0.1515		-0.6534		C.ar		1		UNL1		0.1455
22		C		4.3985		-0.7658		-0.8290		C.ar		1		UNL1		-0.2208
23		C		5.3121		-0.9525		0.1802		C.ar		1		UNL1		0.0790
24		BR		6.7515		-2.1890		-0.0563		Br		1		UNL1		-0.1257
25		C		5.2192		-0.2492		1.4035		C.ar		1		UNL1		-0.1521
26		C		4.1905		0.6451		1.5915		C.ar		1		UNL1		-0.1902
27		C		3.2200		0.8724		0.5796		C.ar		1		UNL1		0.1354
28		C		2.1482		1.7875		0.7525		C.ar		1		UNL1		-0.2380
29		H		-2.4005		5.7986		0.0914		H		1		UNL1		0.1585
30		H		-0.8860		5.3473		0.8979		H		1		UNL1		0.1727
31		H		-0.9600		5.3886		-0.8600		H		1		UNL1		0.1730
32		H		-4.0861		4.0353		0.1318		H		1		UNL1		0.1490
33		H		-2.1895		-0.8159		-0.0659		H		1		UNL1		0.3480
34		H		-3.1800		-2.8359		-0.0524		H		1		UNL1		0.1366
35		H		-5.2190		-4.2173		0.0163		H		1		UNL1		0.1575
36		H		-7.6192		-0.6500		0.1792		H		1		UNL1		0.1576
37		H		-5.5704		0.7397		0.1105		H		1		UNL1		0.1897
38		H		0.5981		1.4550		-2.2583		H		1		UNL1		0.1479
39		H		2.4474		-0.1596		-2.6087		H		1		UNL1		0.1442
40		H		4.4873		-1.3143		-1.7612		H		1		UNL1		0.1555
41		H		5.9578		-0.4212		2.1785		H		1		UNL1		0.1576
42		H		4.1123		1.1898		2.5289		H		1		UNL1		0.1445
43		H		2.0498		2.3472		1.6776		H		1		UNL1		0.1455
@<TRIPOS>BOND
1		39		20		1
2		38		19		1
3		40		22		1
4		20		19		ar
5		20		21		ar
6		19		18		ar
7		31		1		1
8		22		21		ar
9		22		23		ar
10		21		27		ar
11		18		17		1
12		18		28		ar
13		17		16		1
14		33		6		1
15		15		16		ar
16		15		5		ar
17		24		23		1
18		34		8		1
19		16		2		ar
20		6		5		1
21		6		7		1
22		5		4		ar
23		8		7		ar
24		8		9		ar
25		35		9		1
26		7		14		ar
27		2		1		1
28		2		3		ar
29		9		10		ar
30		1		29		1
31		1		30		1
32		4		3		ar
33		3		32		1
34		14		37		1
35		14		13		ar
36		10		13		ar
37		10		11		1
38		13		36		1
39		11		12		3
40		23		25		ar
41		27		28		ar
42		27		26		ar
43		28		43		1
44		25		26		ar
45		25		41		1
46		26		42		1

