@<TRIPOS>MOLECULE
WHQ-2015-BMC-624-3-3v
 45 47 0 0 0
SMALL
MULLIKEN_CHARGES
****
Gaussian 16 #p B3LYP/6-31G* opt
@<TRIPOS>ATOM
1		C		-0.5352		-4.3878		-1.8024		C.3		1		UNL1		-0.5199
2		C		0.2541		-3.2717		-1.1770		C.ar		1		UNL1		0.0810
3		C		1.4413		-2.7771		-1.6994		C.ar		1		UNL1		0.0170
4		N		2.1677		-1.7885		-1.1533		N.ar		1		UNL1		-0.4841
5		C		1.6794		-1.2708		-0.0252		C.ar		1		UNL1		0.7039
6		N		2.3325		-0.2498		0.6277		N.pl3		1		UNL1		-0.7686
7		C		3.5180		0.4352		0.3486		C.ar		1		UNL1		0.3810
8		C		4.3470		0.1693		-0.7563		C.ar		1		UNL1		-0.1592
9		C		5.5087		0.9092		-0.9399		C.ar		1		UNL1		-0.1530
10		C		5.8756		1.9235		-0.0405		C.ar		1		UNL1		0.1323
11		C		7.0757		2.6765		-0.2420		C.1		1		UNL1		0.2286
12		N		8.0521		3.2890		-0.4049		N.1		1		UNL1		-0.4826
13		C		5.0445		2.1875		1.0625		C.ar		1		UNL1		-0.1400
14		C		3.8852		1.4535		1.2512		C.ar		1		UNL1		-0.2061
15		N		0.5378		-1.6560		0.5918		N.ar		1		UNL1		-0.5735
16		C		-0.1397		-2.6306		0.0173		C.ar		1		UNL1		0.5325
17		O		-1.2983		-3.0582		0.5893		O.3		1		UNL1		-0.5207
18		C		-1.6449		-2.5169		1.8737		C.3		1		UNL1		-0.1337
19		C		-2.3605		-1.1628		1.8226		C.2		1		UNL1		0.5949
20		O		-2.4343		-0.4776		2.8296		O.2		1		UNL1		-0.4901
21		N		-2.9298		-0.8729		0.6077		N.am		1		UNL1		-0.7204
22		C		-3.6791		0.2538		0.2310		C.ar		1		UNL1		0.3772
23		C		-3.9900		1.2989		1.1174		C.ar		1		UNL1		-0.1667
24		C		-4.7393		2.3793		0.6667		C.ar		1		UNL1		-0.1527
25		C		-5.1919		2.4428		-0.6615		C.ar		1		UNL1		0.1354
26		C		-5.9645		3.5605		-1.1139		C.1		1		UNL1		0.2319
27		N		-6.5930		4.4674		-1.4838		N.1		1		UNL1		-0.4779
28		C		-4.8782		1.3944		-1.5431		C.ar		1		UNL1		-0.1404
29		C		-4.1303		0.3147		-1.0989		C.ar		1		UNL1		-0.2001
30		H		-0.6622		-5.2272		-1.1090		H		1		UNL1		0.1767
31		H		-1.5416		-4.0628		-2.0935		H		1		UNL1		0.1620
32		H		-0.0299		-4.7595		-2.6991		H		1		UNL1		0.1641
33		H		1.8430		-3.2027		-2.6181		H		1		UNL1		0.1528
34		H		1.8375		0.0452		1.4598		H		1		UNL1		0.3504
35		H		4.0710		-0.6090		-1.4527		H		1		UNL1		0.1896
36		H		6.1447		0.6995		-1.7941		H		1		UNL1		0.1594
37		H		5.3139		2.9685		1.7660		H		1		UNL1		0.1604
38		H		3.2499		1.6669		2.1077		H		1		UNL1		0.1403
39		H		-2.3215		-3.2533		2.3169		H		1		UNL1		0.1967
40		H		-0.7634		-2.4028		2.5045		H		1		UNL1		0.2062
41		H		-2.7703		-1.5650		-0.1144		H		1		UNL1		0.3500
42		H		-3.6441		1.2513		2.1402		H		1		UNL1		0.1991
43		H		-4.9797		3.1864		1.3512		H		1		UNL1		0.1652
44		H		-5.2225		1.4331		-2.5713		H		1		UNL1		0.1626
45		H		-3.8913		-0.4922		-1.7878		H		1		UNL1		0.1386
@<TRIPOS>BOND
1		32		1		1
2		33		3		1
3		44		28		1
4		31		1		1
5		1		2		1
6		1		30		1
7		36		9		1
8		45		29		1
9		3		2		ar
10		3		4		ar
11		28		29		ar
12		28		25		ar
13		27		26		3
14		35		8		1
15		2		16		ar
16		4		5		ar
17		26		25		1
18		29		22		ar
19		9		8		ar
20		9		10		ar
21		8		7		ar
22		25		24		ar
23		12		11		3
24		11		10		1
25		41		21		1
26		10		13		ar
27		5		15		ar
28		5		6		1
29		16		17		1
30		16		15		ar
31		22		21		1
32		22		23		ar
33		7		6		1
34		7		14		ar
35		17		18		1
36		21		19		1
37		6		34		1
38		24		23		ar
39		24		43		1
40		13		14		ar
41		13		37		1
42		23		42		1
43		14		38		1
44		19		18		1
45		19		20		2
46		18		39		1
47		18		40		1

