@<TRIPOS>MOLECULE
WHQ-2013-BMC-6477-3-7b
 44 46 0 0 0
SMALL
MULLIKEN_CHARGES
****
Gaussian 16 #p B3LYP/6-31G* opt
@<TRIPOS>ATOM
1		C		7.8803		-1.1058		-0.5508		C.3		1		UNL1		-0.2182
2		O		7.1957		-0.4202		0.4871		O.3		1		UNL1		-0.5033
3		C		5.8509		-0.2393		0.3662		C.ar		1		UNL1		0.3795
4		C		5.2315		0.4444		1.4245		C.ar		1		UNL1		-0.1708
5		C		3.8643		0.6769		1.3974		C.ar		1		UNL1		-0.1666
6		C		3.0736		0.2349		0.3234		C.ar		1		UNL1		0.1384
7		C		1.5909		0.4865		0.3010		C.3		1		UNL1		-0.4919
8		S		1.2667		2.1515		-0.4634		S.3		1		UNL1		0.1556
9		C		-0.4979		2.2500		-0.3071		C.ar		1		UNL1		0.3230
10		N		-1.2052		1.2635		0.1578		N.ar		1		UNL1		-0.5199
11		C		-2.5709		1.4506		0.2674		C.ar		1		UNL1		0.1481
12		C		-3.2950		0.2865		0.9125		C.2		1		UNL1		0.3591
13		O		-4.1166		0.5021		1.7932		O.2		1		UNL1		-0.4568
14		C		-2.9928		-1.1115		0.4752		C.ar		1		UNL1		0.0869
15		C		-2.3238		-1.4191		-0.7191		C.ar		1		UNL1		-0.1511
16		C		-2.1288		-2.7438		-1.1035		C.ar		1		UNL1		-0.1418
17		C		-2.5981		-3.7666		-0.2791		C.ar		1		UNL1		-0.0581
18		CL		-2.3431		-5.4375		-0.7522		Cl		1		UNL1		-0.0103
19		C		-3.2690		-3.4872		0.9135		C.ar		1		UNL1		-0.1335
20		C		-3.4694		-2.1606		1.2772		C.ar		1		UNL1		-0.1529
21		C		-3.2354		2.5935		-0.1052		C.ar		1		UNL1		0.0570
22		C		-4.7129		2.8445		-0.0067		C.3		1		UNL1		-0.5052
23		C		-2.4454		3.6939		-0.6595		C.ar		1		UNL1		0.5810
24		O		-2.8736		4.7709		-1.0501		O.2		1		UNL1		-0.5104
25		N		-1.0603		3.4264		-0.7109		N.ar		1		UNL1		-0.6494
26		C		3.7044		-0.4412		-0.7242		C.ar		1		UNL1		-0.1737
27		C		5.0795		-0.6845		-0.7141		C.ar		1		UNL1		-0.1938
28		H		7.5094		-2.1324		-0.6686		H		1		UNL1		0.1550
29		H		8.9286		-1.1335		-0.2490		H		1		UNL1		0.1743
30		H		7.7924		-0.5773		-1.5091		H		1		UNL1		0.1551
31		H		5.8448		0.7786		2.2552		H		1		UNL1		0.1453
32		H		3.3978		1.2071		2.2243		H		1		UNL1		0.1387
33		H		1.0527		-0.2554		-0.2910		H		1		UNL1		0.2029
34		H		1.1547		0.5049		1.3015		H		1		UNL1		0.2074
35		H		-1.9545		-0.6241		-1.3561		H		1		UNL1		0.1551
36		H		-1.6199		-2.9837		-2.0309		H		1		UNL1		0.1587
37		H		-3.6290		-4.2977		1.5381		H		1		UNL1		0.1627
38		H		-4.0010		-1.9134		2.1902		H		1		UNL1		0.1725
39		H		-4.9267		3.5328		0.8205		H		1		UNL1		0.1807
40		H		-5.2800		1.9309		0.1687		H		1		UNL1		0.1693
41		H		-5.0624		3.3358		-0.9201		H		1		UNL1		0.1737
42		H		-0.4890		4.1868		-1.0669		H		1		UNL1		0.3565
43		H		3.1146		-0.7925		-1.5678		H		1		UNL1		0.1341
44		H		5.5315		-1.2180		-1.5422		H		1		UNL1		0.1371
@<TRIPOS>BOND
1		36		16		1
2		43		26		1
3		44		27		1
4		30		1		1
5		35		15		1
6		16		15		ar
7		16		17		ar
8		42		25		1
9		24		23		2
10		41		22		1
11		18		17		1
12		26		27		ar
13		26		6		ar
14		15		14		ar
15		27		3		ar
16		25		23		ar
17		25		9		ar
18		28		1		1
19		23		21		ar
20		1		29		1
21		1		2		1
22		8		9		1
23		8		7		1
24		9		10		ar
25		33		7		1
26		17		19		ar
27		21		22		1
28		21		11		ar
29		22		40		1
30		22		39		1
31		10		11		ar
32		11		12		1
33		7		6		1
34		7		34		1
35		6		5		ar
36		3		2		1
37		3		4		ar
38		14		12		1
39		14		20		ar
40		12		13		2
41		19		20		ar
42		19		37		1
43		20		38		1
44		5		4		ar
45		5		32		1
46		4		31		1

