@<TRIPOS>MOLECULE
WHQ-2014-MCC-5468-3-1u
 46 48 0 0 0
SMALL
MULLIKEN_CHARGES
****
Gaussian 16 #p B3LYP/6-31G* opt
@<TRIPOS>ATOM
1		C		7.9057		-1.7040		-0.8525		C.3		1		UNL1		-0.2176
2		O		6.5647		-1.6728		-1.3168		O.3		1		UNL1		-0.5028
3		C		5.6003		-1.2004		-0.4783		C.ar		1		UNL1		0.3786
4		C		5.8291		-0.7432		0.8245		C.ar		1		UNL1		-0.1922
5		C		4.7550		-0.2828		1.5902		C.ar		1		UNL1		-0.1891
6		C		3.4515		-0.2681		1.0887		C.ar		1		UNL1		0.1869
7		C		2.3085		0.2255		1.9293		C.3		1		UNL1		-0.5359
8		S		1.8359		2.0038		1.6239		S.3		1		UNL1		0.1597
9		C		0.4615		1.8351		0.5143		C.ar		1		UNL1		0.3459
10		N		-0.0866		0.6885		0.2279		N.ar		1		UNL1		-0.5418
11		C		-1.1695		0.6888		-0.6273		C.ar		1		UNL1		0.2426
12		C		-1.7098		-0.7309		-0.8678		C.3		1		UNL1		-0.2967
13		C		-1.7865		-1.0459		-2.3008		C.1		1		UNL1		0.3718
14		N		-1.8339		-1.3047		-3.4313		N.1		1		UNL1		-0.4878
15		C		-3.0182		-1.0167		-0.1140		C.ar		1		UNL1		0.1500
16		C		-4.1477		-1.5283		-0.7571		C.ar		1		UNL1		-0.2661
17		C		-5.2873		-1.7909		-0.0009		C.ar		1		UNL1		0.3979
18		F		-6.3741		-2.2813		-0.6240		F		1		UNL1		-0.2888
19		C		-5.3496		-1.5687		1.3676		C.ar		1		UNL1		-0.2727
20		C		-4.2041		-1.0628		1.9735		C.ar		1		UNL1		0.3953
21		F		-4.2253		-0.8392		3.3008		F		1		UNL1		-0.2916
22		C		-3.0423		-0.7830		1.2672		C.ar		1		UNL1		-0.2415
23		C		-1.7229		1.8126		-1.1846		C.ar		1		UNL1		0.0689
24		C		-2.9067		1.8466		-2.1114		C.3		1		UNL1		-0.5411
25		C		-1.1059		3.1022		-0.8792		C.ar		1		UNL1		0.5825
26		O		-1.4519		4.1977		-1.2964		O.2		1		UNL1		-0.5093
27		N		0.0021		3.0055		-0.0056		N.ar		1		UNL1		-0.6513
28		C		3.2403		-0.7321		-0.2214		C.ar		1		UNL1		-0.1818
29		C		4.2946		-1.1920		-0.9957		C.ar		1		UNL1		-0.1699
30		H		8.4972		-2.1091		-1.6753		H		1		UNL1		0.1744
31		H		8.0133		-2.3539		0.0259		H		1		UNL1		0.1538
32		H		8.2699		-0.6983		-0.6046		H		1		UNL1		0.1546
33		H		6.8255		-0.7425		1.2508		H		1		UNL1		0.1357
34		H		4.9461		0.0683		2.6021		H		1		UNL1		0.1278
35		H		1.3895		-0.3399		1.7624		H		1		UNL1		0.2234
36		H		2.5509		0.1990		2.9947		H		1		UNL1		0.1927
37		H		-0.9430		-1.3954		-0.4506		H		1		UNL1		0.2251
38		H		-4.1581		-1.7293		-1.8225		H		1		UNL1		0.1777
39		H		-6.2465		-1.7798		1.9372		H		1		UNL1		0.1685
40		H		-2.1775		-0.3916		1.7916		H		1		UNL1		0.1636
41		H		-3.3754		2.8320		-2.0578		H		1		UNL1		0.1917
42		H		-2.6017		1.6837		-3.1527		H		1		UNL1		0.1913
43		H		-3.6489		1.0847		-1.8606		H		1		UNL1		0.1639
44		H		0.4580		3.8876		0.2076		H		1		UNL1		0.3602
45		H		2.2345		-0.7286		-0.6323		H		1		UNL1		0.1460
46		H		4.1358		-1.5545		-2.0065		H		1		UNL1		0.1473
@<TRIPOS>BOND
1		14		13		3
2		42		24		1
3		13		12		1
4		24		41		1
5		24		43		1
6		24		23		1
7		46		29		1
8		38		16		1
9		30		1		1
10		2		1		1
11		2		3		1
12		26		25		2
13		23		25		ar
14		23		11		ar
15		29		3		ar
16		29		28		ar
17		25		27		ar
18		12		11		1
19		12		37		1
20		12		15		1
21		1		32		1
22		1		31		1
23		16		15		ar
24		16		17		ar
25		45		28		1
26		11		10		ar
27		18		17		1
28		3		4		ar
29		28		6		ar
30		15		22		ar
31		27		44		1
32		27		9		ar
33		17		19		ar
34		10		9		ar
35		9		8		1
36		4		33		1
37		4		5		ar
38		6		5		ar
39		6		7		1
40		22		40		1
41		22		20		ar
42		19		39		1
43		19		20		ar
44		5		34		1
45		8		7		1
46		35		7		1
47		7		36		1
48		20		21		1

