@<TRIPOS>MOLECULE
WHQ-2014-SQER-761-71
 41 44 0 0 0
SMALL
MULLIKEN_CHARGES
****
Gaussian 16 #p B3LYP/6-31G* opt
@<TRIPOS>ATOM
1		N		-8.4127		-3.2821		-0.5631		N.1		1		UNL1		-0.4835
2		C		-7.6300		-2.4306		-0.4312		C.1		1		UNL1		0.2283
3		C		-6.6696		-1.3821		-0.2693		C.ar		1		UNL1		0.1321
4		C		-7.0889		-0.0649		-0.0122		C.ar		1		UNL1		-0.1403
5		C		-6.1536		0.9447		0.1423		C.ar		1		UNL1		-0.2049
6		C		-4.7733		0.6753		0.0460		C.ar		1		UNL1		0.3809
7		N		-3.9124		1.7618		0.2174		N.pl3		1		UNL1		-0.7642
8		C		-2.5419		1.8763		0.1858		C.ar		1		UNL1		0.6982
9		N		-2.1010		3.1327		0.4114		N.ar		1		UNL1		-0.4904
10		C		-0.7780		3.2818		0.3919		C.ar		1		UNL1		0.0683
11		C		0.1182		2.2400		0.1555		C.ar		1		UNL1		-0.2186
12		C		-0.4742		0.9940		-0.0661		C.ar		1		UNL1		0.5435
13		O		0.2283		-0.1525		-0.3065		O.3		1		UNL1		-0.5232
14		C		1.5962		-0.1002		-0.4851		C.ar		1		UNL1		0.3254
15		C		2.1039		0.2724		-1.7522		C.ar		1		UNL1		-0.1469
16		C		3.4555		0.2468		-1.9867		C.ar		1		UNL1		-0.1960
17		C		4.3598		-0.1577		-0.9681		C.ar		1		UNL1		0.1516
18		C		5.7560		-0.1902		-1.2005		C.ar		1		UNL1		-0.2170
19		C		6.6321		-0.5878		-0.2052		C.ar		1		UNL1		0.1395
20		C		8.0438		-0.6132		-0.4546		C.1		1		UNL1		0.2388
21		N		9.1902		-0.6347		-0.6505		N.1		1		UNL1		-0.4705
22		C		6.1308		-0.9720		1.0704		C.ar		1		UNL1		-0.1392
23		C		4.7806		-0.9499		1.3202		C.ar		1		UNL1		-0.1990
24		C		3.8563		-0.5454		0.3194		C.ar		1		UNL1		0.1373
25		C		2.4458		-0.5004		0.5289		C.ar		1		UNL1		-0.1984
26		CL		1.7663		-0.9573		2.0726		Cl		1		UNL1		0.0387
27		N		-1.7860		0.7987		-0.0556		N.ar		1		UNL1		-0.5312
28		C		-4.3507		-0.6421		-0.2105		C.ar		1		UNL1		-0.1621
29		C		-5.2944		-1.6505		-0.3645		C.ar		1		UNL1		-0.1536
30		H		-8.1480		0.1585		0.0646		H		1		UNL1		0.1591
31		H		-6.4894		1.9599		0.3408		H		1		UNL1		0.1384
32		H		-4.3525		2.6537		0.4064		H		1		UNL1		0.3500
33		H		-0.4080		4.2886		0.5770		H		1		UNL1		0.1607
34		H		1.1889		2.3927		0.1558		H		1		UNL1		0.1611
35		H		1.3978		0.5619		-2.5235		H		1		UNL1		0.1652
36		H		3.8486		0.5288		-2.9591		H		1		UNL1		0.1576
37		H		6.1369		0.1019		-2.1743		H		1		UNL1		0.1672
38		H		6.8277		-1.2826		1.8416		H		1		UNL1		0.1675
39		H		4.4080		-1.2446		2.2941		H		1		UNL1		0.1739
40		H		-3.2954		-0.8603		-0.2852		H		1		UNL1		0.1956
41		H		-4.9620		-2.6648		-0.5617		H		1		UNL1		0.1602
@<TRIPOS>BOND
1		36		16		1
2		35		15		1
3		37		18		1
4		16		15		ar
5		16		17		ar
6		15		14		ar
7		18		17		ar
8		18		19		ar
9		17		24		ar
10		21		20		3
11		1		2		3
12		41		29		1
13		14		13		1
14		14		25		ar
15		20		19		1
16		2		3		1
17		29		3		ar
18		29		28		ar
19		13		12		1
20		40		28		1
21		3		4		ar
22		28		6		ar
23		19		22		ar
24		12		27		ar
25		12		11		ar
26		27		8		ar
27		4		30		1
28		4		5		ar
29		6		5		ar
30		6		7		1
31		5		31		1
32		11		34		1
33		11		10		ar
34		8		7		1
35		8		9		ar
36		7		32		1
37		24		25		ar
38		24		23		ar
39		10		9		ar
40		10		33		1
41		25		26		1
42		22		23		ar
43		22		38		1
44		23		39		1

