@<TRIPOS>MOLECULE
WHQ-2014-SQER-761-20
 40 43 0 0 0
SMALL
MULLIKEN_CHARGES
****
Gaussian 16 #p B3LYP/6-31G* opt
@<TRIPOS>ATOM
1		N		7.9707		-3.1200		-0.4331		N.1		1		UNL1		-0.4856
2		C		7.1601		-2.2923		-0.3183		C.1		1		UNL1		0.2273
3		C		6.1658		-1.2730		-0.1773		C.ar		1		UNL1		0.1312
4		C		6.5391		0.0523		0.1081		C.ar		1		UNL1		-0.1406
5		C		5.5715		1.0337		0.2421		C.ar		1		UNL1		-0.2052
6		C		4.2027		0.7281		0.0966		C.ar		1		UNL1		0.3816
7		N		3.3069		1.7871		0.2506		N.pl3		1		UNL1		-0.7647
8		C		1.9336		1.8633		0.1744		C.ar		1		UNL1		0.6970
9		N		1.4516		3.1039		0.3985		N.ar		1		UNL1		-0.4934
10		C		0.1253		3.2152		0.3349		C.ar		1		UNL1		0.0668
11		C		-0.7315		2.1522		0.0576		C.ar		1		UNL1		-0.2169
12		C		-0.0986		0.9236		-0.1559		C.ar		1		UNL1		0.5462
13		O		-0.7573		-0.2351		-0.4375		O.3		1		UNL1		-0.5243
14		C		-2.1316		-0.2221		-0.6105		C.ar		1		UNL1		0.3150
15		C		-2.6463		0.0705		-1.8944		C.ar		1		UNL1		-0.1475
16		C		-3.9985		0.0078		-2.1223		C.ar		1		UNL1		-0.2030
17		C		-4.8967		-0.3535		-1.0833		C.ar		1		UNL1		0.1534
18		C		-6.2976		-0.4249		-1.3061		C.ar		1		UNL1		-0.1949
19		C		-7.1592		-0.7795		-0.2941		C.ar		1		UNL1		-0.1295
20		C		-6.6522		-1.0803		0.9918		C.ar		1		UNL1		-0.1323
21		C		-5.3000		-1.0226		1.2463		C.ar		1		UNL1		-0.1935
22		C		-4.3847		-0.6595		0.2231		C.ar		1		UNL1		0.1246
23		C		-2.9732		-0.5797		0.4241		C.ar		1		UNL1		-0.1927
24		CL		-2.2817		-0.9411		1.9911		Cl		1		UNL1		0.0242
25		N		1.2189		0.7675		-0.1029		N.ar		1		UNL1		-0.5329
26		C		3.8263		-0.5979		-0.1882		C.ar		1		UNL1		-0.1625
27		C		4.8023		-1.5777		-0.3215		C.ar		1		UNL1		-0.1540
28		H		7.5885		0.3040		0.2229		H		1		UNL1		0.1573
29		H		5.8719		2.0555		0.4627		H		1		UNL1		0.1369
30		H		3.7142		2.6889		0.4637		H		1		UNL1		0.3484
31		H		-0.2794		4.2094		0.5167		H		1		UNL1		0.1576
32		H		-1.8054		2.2741		0.0198		H		1		UNL1		0.1623
33		H		-1.9458		0.3295		-2.6818		H		1		UNL1		0.1566
34		H		-4.3971		0.2292		-3.1085		H		1		UNL1		0.1472
35		H		-6.6761		-0.1929		-2.2985		H		1		UNL1		0.1396
36		H		-8.2284		-0.8303		-0.4790		H		1		UNL1		0.1406
37		H		-7.3369		-1.3605		1.7873		H		1		UNL1		0.1420
38		H		-4.9204		-1.2553		2.2345		H		1		UNL1		0.1615
39		H		2.7802		-0.8434		-0.3006		H		1		UNL1		0.1969
40		H		4.5050		-2.5984		-0.5407		H		1		UNL1		0.1592
@<TRIPOS>BOND
1		34		16		1
2		33		15		1
3		35		18		1
4		16		15		ar
5		16		17		ar
6		15		14		ar
7		18		17		ar
8		18		19		ar
9		17		22		ar
10		14		13		1
11		14		23		ar
12		40		27		1
13		36		19		1
14		13		12		1
15		1		2		3
16		27		26		ar
17		27		3		ar
18		2		3		1
19		39		26		1
20		19		20		ar
21		26		6		ar
22		3		4		ar
23		12		25		ar
24		12		11		ar
25		25		8		ar
26		32		11		1
27		11		10		ar
28		6		5		ar
29		6		7		1
30		4		28		1
31		4		5		ar
32		8		7		1
33		8		9		ar
34		22		23		ar
35		22		21		ar
36		5		29		1
37		7		30		1
38		10		9		ar
39		10		31		1
40		23		24		1
41		20		21		ar
42		20		37		1
43		21		38		1

