@<TRIPOS>MOLECULE
WHQ-2015-BMC-624-3-3u
 46 48 0 0 0
SMALL
MULLIKEN_CHARGES
****
Gaussian 16 #p B3LYP/6-31G* opt
@<TRIPOS>ATOM
1		C		0.0994		4.5182		1.8912		C.3		1		UNL1		-0.5200
2		C		0.8022		3.3574		1.2442		C.ar		1		UNL1		0.0810
3		C		1.9321		2.7464		1.7708		C.ar		1		UNL1		0.0172
4		N		2.5815		1.7157		1.2060		N.ar		1		UNL1		-0.4838
5		C		2.0733		1.2763		0.0538		C.ar		1		UNL1		0.7041
6		N		2.6491		0.2232		-0.6201		N.pl3		1		UNL1		-0.7686
7		C		3.7657		-0.5701		-0.3426		C.ar		1		UNL1		0.3809
8		C		4.0636		-1.5864		-1.2723		C.ar		1		UNL1		-0.2062
9		C		5.1513		-2.4235		-1.0872		C.ar		1		UNL1		-0.1400
10		C		5.9780		-2.2680		0.0396		C.ar		1		UNL1		0.1325
11		C		7.1046		-3.1280		0.2376		C.1		1		UNL1		0.2287
12		N		8.0213		-3.8273		0.3977		N.1		1		UNL1		-0.4823
13		C		5.6802		-1.2555		0.9660		C.ar		1		UNL1		-0.1530
14		C		4.5903		-0.4125		0.7860		C.ar		1		UNL1		-0.1592
15		N		0.9811		1.7773		-0.5698		N.ar		1		UNL1		-0.5739
16		C		0.3788		2.7889		0.0238		C.ar		1		UNL1		0.5319
17		O		-0.7281		3.3312		-0.5545		O.3		1		UNL1		-0.5207
18		C		-1.0903		2.8622		-1.8623		C.3		1		UNL1		-0.1337
19		C		-1.9101		1.5677		-1.8699		C.2		1		UNL1		0.5962
20		O		-2.0147		0.9200		-2.8979		O.2		1		UNL1		-0.4870
21		N		-2.5296		1.2877		-0.6755		N.am		1		UNL1		-0.7215
22		C		-3.3732		0.2156		-0.3503		C.ar		1		UNL1		0.3862
23		C		-3.7437		-0.7763		-1.2764		C.ar		1		UNL1		-0.1718
24		C		-4.5867		-1.8065		-0.8762		C.ar		1		UNL1		-0.1669
25		C		-5.0575		-1.8483		0.4350		C.ar		1		UNL1		0.2829
26		N		-5.9464		-2.9372		0.8469		N.pl3		1		UNL1		0.3749
27		O		-6.3450		-2.9407		2.0131		O.2		1		UNL1		-0.4003
28		O		-6.2436		-3.7851		0.0045		O.2		1		UNL1		-0.3979
29		C		-4.7007		-0.8731		1.3660		C.ar		1		UNL1		-0.1532
30		C		-3.8594		0.1547		0.9691		C.ar		1		UNL1		-0.2070
31		H		-0.9363		4.2722		2.1564		H		1		UNL1		0.1621
32		H		0.6178		4.8187		2.8068		H		1		UNL1		0.1645
33		H		0.0572		5.3854		1.2221		H		1		UNL1		0.1769
34		H		2.3507		3.1077		2.7093		H		1		UNL1		0.1533
35		H		2.1481		-0.0020		-1.4702		H		1		UNL1		0.3504
36		H		3.4309		-1.7163		-2.1474		H		1		UNL1		0.1405
37		H		5.3680		-3.2017		-1.8117		H		1		UNL1		0.1607
38		H		6.3133		-1.1293		1.8386		H		1		UNL1		0.1597
39		H		4.3672		0.3639		1.5033		H		1		UNL1		0.1897
40		H		-0.2085		2.7000		-2.4821		H		1		UNL1		0.2068
41		H		-1.6990		3.6636		-2.2911		H		1		UNL1		0.1976
42		H		-2.3319		1.9434		0.0709		H		1		UNL1		0.3513
43		H		-3.3704		-0.7268		-2.2893		H		1		UNL1		0.2012
44		H		-4.8855		-2.5809		-1.5720		H		1		UNL1		0.1884
45		H		-5.0828		-0.9330		2.3775		H		1		UNL1		0.1862
46		H		-3.5733		0.9207		1.6859		H		1		UNL1		0.1415
@<TRIPOS>BOND
1		20		19		2
2		40		18		1
3		41		18		1
4		43		23		1
5		36		8		1
6		19		18		1
7		19		21		1
8		18		17		1
9		37		9		1
10		44		24		1
11		35		6		1
12		23		24		ar
13		23		22		ar
14		8		9		ar
15		8		7		ar
16		9		10		ar
17		24		25		ar
18		21		22		1
19		21		42		1
20		6		7		1
21		6		5		1
22		15		16		ar
23		15		5		ar
24		17		16		1
25		22		30		ar
26		7		14		ar
27		28		26		2
28		16		2		ar
29		10		11		1
30		10		13		ar
31		5		4		ar
32		11		12		3
33		25		26		1
34		25		29		ar
35		14		13		ar
36		14		39		1
37		26		27		2
38		13		38		1
39		30		29		ar
40		30		46		1
41		4		3		ar
42		33		1		1
43		2		3		ar
44		2		1		1
45		29		45		1
46		3		34		1
47		1		31		1
48		1		32		1

