@<TRIPOS>MOLECULE
WHQ-2014-SQER-761-10
 40 43 0 0 0
SMALL
MULLIKEN_CHARGES
****
Gaussian 16 #p B3LYP/6-31G* opt
@<TRIPOS>ATOM
1		N		8.7369		2.5820		-0.5618		N.1		1		UNL1		-0.4844
2		C		7.6760		2.1201		-0.4336		C.1		1		UNL1		0.2277
3		C		6.3714		1.5538		-0.2761		C.ar		1		UNL1		0.1316
4		C		6.2098		0.1722		-0.0819		C.ar		1		UNL1		-0.1534
5		C		4.9492		-0.3911		0.0725		C.ar		1		UNL1		-0.1591
6		C		3.8078		0.4308		0.0348		C.ar		1		UNL1		0.3817
7		N		2.4983		-0.0312		0.1797		N.pl3		1		UNL1		-0.7679
8		C		1.9749		-1.2904		0.3759		C.ar		1		UNL1		0.7008
9		N		2.7780		-2.3551		0.4619		N.ar		1		UNL1		-0.4875
10		C		2.1550		-3.5305		0.6509		C.ar		1		UNL1		0.0697
11		C		0.7822		-3.6666		0.7535		C.ar		1		UNL1		-0.2167
12		C		0.0564		-2.4677		0.6475		C.ar		1		UNL1		0.5695
13		O		-1.2952		-2.5585		0.7387		O.3		1		UNL1		-0.5687
14		C		-2.0720		-1.3974		0.6801		C.ar		1		UNL1		0.2966
15		C		-2.3035		-0.6811		1.8263		C.ar		1		UNL1		-0.1533
16		C		-3.1536		0.4457		1.7875		C.ar		1		UNL1		-0.1799
17		C		-3.7485		0.8179		0.6055		C.ar		1		UNL1		0.0353
18		BR		-4.8866		2.3590		0.6225		Br		1		UNL1		-0.1220
19		C		-3.5431		0.0935		-0.6045		C.ar		1		UNL1		0.0889
20		C		-4.1423		0.4359		-1.8456		C.ar		1		UNL1		-0.1912
21		C		-3.9040		-0.3113		-2.9765		C.ar		1		UNL1		-0.1293
22		C		-3.0564		-1.4423		-2.9257		C.ar		1		UNL1		-0.1306
23		C		-2.4570		-1.8054		-1.7419		C.ar		1		UNL1		-0.1874
24		C		-2.6766		-1.0528		-0.5585		C.ar		1		UNL1		0.1202
25		N		0.6248		-1.2916		0.4622		N.ar		1		UNL1		-0.5566
26		C		3.9697		1.8176		-0.1602		C.ar		1		UNL1		-0.2058
27		C		5.2290		2.3730		-0.3134		C.ar		1		UNL1		-0.1405
28		H		7.0865		-0.4672		-0.0519		H		1		UNL1		0.1584
29		H		4.8318		-1.4547		0.2214		H		1		UNL1		0.1901
30		H		1.7719		0.6721		0.1311		H		1		UNL1		0.3503
31		H		2.8031		-4.4016		0.7226		H		1		UNL1		0.1579
32		H		0.2890		-4.6177		0.9077		H		1		UNL1		0.1593
33		H		-1.8333		-0.9815		2.7566		H		1		UNL1		0.1510
34		H		-3.3360		1.0153		2.6917		H		1		UNL1		0.1609
35		H		-4.7958		1.2999		-1.8855		H		1		UNL1		0.1601
36		H		-4.3733		-0.0317		-3.9155		H		1		UNL1		0.1406
37		H		-2.8807		-2.0265		-3.8246		H		1		UNL1		0.1397
38		H		-1.8142		-2.6774		-1.6931		H		1		UNL1		0.1465
39		H		3.0934		2.4609		-0.1911		H		1		UNL1		0.1387
40		H		5.3371		3.4423		-0.4628		H		1		UNL1		0.1586
@<TRIPOS>BOND
1		36		21		1
2		37		22		1
3		21		22		ar
4		21		20		ar
5		22		23		ar
6		35		20		1
7		20		19		ar
8		23		38		1
9		23		24		ar
10		19		24		ar
11		19		17		ar
12		1		2		3
13		24		14		ar
14		40		27		1
15		2		3		1
16		27		3		ar
17		27		26		ar
18		3		4		ar
19		39		26		1
20		26		6		ar
21		4		28		1
22		4		5		ar
23		6		5		ar
24		6		7		1
25		5		29		1
26		30		7		1
27		7		8		1
28		8		9		ar
29		8		25		ar
30		9		10		ar
31		25		12		ar
32		17		18		1
33		17		16		ar
34		12		13		1
35		12		11		ar
36		10		31		1
37		10		11		ar
38		14		13		1
39		14		15		ar
40		11		32		1
41		16		15		ar
42		16		34		1
43		15		33		1

