@<TRIPOS>MOLECULE
WHQ-2014-SQER-761-34
 43 46 0 0 0
SMALL
MULLIKEN_CHARGES
****
Gaussian 16 #p B3LYP/6-31G* opt
@<TRIPOS>ATOM
1		C		0.7922		4.3620		-0.0193		C.3		1		UNL1		-0.5301
2		C		0.1128		3.0201		-0.0026		C.ar		1		UNL1		0.1006
3		C		-1.2643		2.8295		-0.0641		C.ar		1		UNL1		0.0693
4		CL		-2.3124		4.2375		-0.1696		Cl		1		UNL1		0.0164
5		N		-1.8908		1.6586		-0.0500		N.ar		1		UNL1		-0.4919
6		C		-1.0986		0.5867		0.0298		C.ar		1		UNL1		0.6980
7		N		-1.6371		-0.6799		0.0507		N.pl3		1		UNL1		-0.7716
8		C		-2.9541		-1.1430		0.0015		C.ar		1		UNL1		0.3815
9		C		-3.1314		-2.5409		0.0364		C.ar		1		UNL1		-0.2058
10		C		-4.3980		-3.0993		-0.0057		C.ar		1		UNL1		-0.1403
11		C		-5.5320		-2.2716		-0.0845		C.ar		1		UNL1		0.1319
12		C		-6.8439		-2.8416		-0.1280		C.1		1		UNL1		0.2283
13		N		-7.9100		-3.3078		-0.1630		N.1		1		UNL1		-0.4838
14		C		-5.3549		-0.8789		-0.1196		C.ar		1		UNL1		-0.1537
15		C		-4.0868		-0.3122		-0.0776		C.ar		1		UNL1		-0.1625
16		N		0.2463		0.6033		0.0942		N.ar		1		UNL1		-0.5599
17		C		0.8181		1.7950		0.0769		C.ar		1		UNL1		0.5312
18		O		2.1693		1.8790		0.1255		O.3		1		UNL1		-0.5677
19		C		2.9404		0.7231		0.2977		C.ar		1		UNL1		0.3581
20		C		2.9540		0.0711		1.5522		C.ar		1		UNL1		-0.1397
21		C		3.7922		-1.0019		1.7405		C.ar		1		UNL1		-0.2096
22		C		4.6456		-1.4621		0.7002		C.ar		1		UNL1		0.1468
23		C		5.5213		-2.5670		0.8707		C.ar		1		UNL1		-0.1937
24		C		6.3375		-2.9851		-0.1564		C.ar		1		UNL1		-0.1339
25		C		6.3150		-2.3142		-1.4035		C.ar		1		UNL1		-0.1355
26		C		5.4785		-1.2385		-1.6012		C.ar		1		UNL1		-0.1890
27		C		4.6234		-0.7834		-0.5621		C.ar		1		UNL1		0.1266
28		C		3.7473		0.3218		-0.7355		C.ar		1		UNL1		-0.2356
29		H		1.8726		4.2450		0.0737		H		1		UNL1		0.1848
30		H		0.5814		4.9003		-0.9506		H		1		UNL1		0.1784
31		H		0.4386		4.9934		0.8034		H		1		UNL1		0.1784
32		H		-0.9181		-1.3902		0.1061		H		1		UNL1		0.3513
33		H		-2.2614		-3.1908		0.0969		H		1		UNL1		0.1379
34		H		-4.5182		-4.1774		0.0218		H		1		UNL1		0.1586
35		H		-6.2248		-0.2325		-0.1806		H		1		UNL1		0.1610
36		H		-3.9628		0.7606		-0.1056		H		1		UNL1		0.1986
37		H		2.3072		0.4284		2.3464		H		1		UNL1		0.1439
38		H		3.8140		-1.5115		2.7006		H		1		UNL1		0.1396
39		H		5.5366		-3.0789		1.8301		H		1		UNL1		0.1339
40		H		7.0030		-3.8319		-0.0136		H		1		UNL1		0.1351
41		H		6.9635		-2.6528		-2.2069		H		1		UNL1		0.1357
42		H		5.4609		-0.7225		-2.5580		H		1		UNL1		0.1350
43		H		3.7181		0.8537		-1.6818		H		1		UNL1		0.1435
@<TRIPOS>BOND
1		42		26		1
2		41		25		1
3		43		28		1
4		26		25		ar
5		26		27		ar
6		25		24		ar
7		30		1		1
8		28		27		ar
9		28		19		ar
10		27		22		ar
11		35		14		1
12		4		3		1
13		13		12		3
14		24		40		1
15		24		23		ar
16		12		11		1
17		14		11		ar
18		14		15		ar
19		36		15		1
20		11		10		ar
21		15		8		ar
22		3		5		ar
23		3		2		ar
24		5		6		ar
25		1		2		1
26		1		29		1
27		1		31		1
28		10		34		1
29		10		9		ar
30		2		17		ar
31		8		9		ar
32		8		7		1
33		6		7		1
34		6		16		ar
35		9		33		1
36		7		32		1
37		17		16		ar
38		17		18		1
39		18		19		1
40		19		20		ar
41		22		23		ar
42		22		21		ar
43		23		39		1
44		20		21		ar
45		20		37		1
46		21		38		1

