@<TRIPOS>MOLECULE
WHQ-2014-SQER-761-43
 49 52 0 0 0
SMALL
MULLIKEN_CHARGES
****
Gaussian 16 #p B3LYP/6-31G* opt
@<TRIPOS>ATOM
1		C		-1.7253		4.2590		1.2641		C.3		1		UNL1		-0.4515
2		C		-0.9327		4.0175		-0.0366		C.3		1		UNL1		-0.1516
3		C		-1.8270		4.1580		-1.2852		C.3		1		UNL1		-0.4512
4		C		-0.1679		2.7024		-0.0155		C.ar		1		UNL1		0.0988
5		C		1.2211		2.5838		-0.0752		C.ar		1		UNL1		0.0537
6		CL		2.2368		4.0217		-0.1863		Cl		1		UNL1		0.0129
7		N		1.9107		1.4470		-0.0557		N.ar		1		UNL1		-0.4891
8		C		1.1859		0.3318		0.0286		C.ar		1		UNL1		0.7001
9		N		1.7961		-0.9016		0.0555		N.pl3		1		UNL1		-0.7721
10		C		3.1379		-1.2871		0.0087		C.ar		1		UNL1		0.3814
11		C		4.2196		-0.3914		-0.0758		C.ar		1		UNL1		-0.1627
12		C		5.5189		-0.8824		-0.1152		C.ar		1		UNL1		-0.1538
13		C		5.7777		-2.2622		-0.0722		C.ar		1		UNL1		0.1320
14		C		7.1209		-2.7542		-0.1132		C.1		1		UNL1		0.2283
15		N		8.2126		-3.1570		-0.1462		N.1		1		UNL1		-0.4838
16		C		4.6946		-3.1548		0.0120		C.ar		1		UNL1		-0.1403
17		C		3.3972		-2.6719		0.0517		C.ar		1		UNL1		-0.2058
18		N		-0.1572		0.2732		0.0926		N.ar		1		UNL1		-0.5603
19		C		-0.7942		1.4298		0.0695		C.ar		1		UNL1		0.5321
20		O		-2.1495		1.4197		0.1194		O.3		1		UNL1		-0.5642
21		C		-2.8345		0.2102		0.2972		C.ar		1		UNL1		0.3578
22		C		-2.8408		-0.4039		1.5705		C.ar		1		UNL1		-0.1410
23		C		-3.5985		-1.5340		1.7657		C.ar		1		UNL1		-0.2097
24		C		-4.3762		-2.0904		0.7133		C.ar		1		UNL1		0.1472
25		C		-5.1683		-3.2558		0.8902		C.ar		1		UNL1		-0.1937
26		C		-5.9125		-3.7672		-0.1492		C.ar		1		UNL1		-0.1339
27		C		-5.8988		-3.1334		-1.4157		C.ar		1		UNL1		-0.1354
28		C		-5.1426		-2.0010		-1.6201		C.ar		1		UNL1		-0.1891
29		C		-4.3629		-1.4493		-0.5687		C.ar		1		UNL1		0.1260
30		C		-3.5707		-0.2834		-0.7487		C.ar		1		UNL1		-0.2349
31		H		-1.0699		4.2050		2.1405		H		1		UNL1		0.1473
32		H		-2.1753		5.2582		1.2425		H		1		UNL1		0.1471
33		H		-2.5292		3.5287		1.3889		H		1		UNL1		0.1639
34		H		-0.1783		4.8060		-0.0980		H		1		UNL1		0.1596
35		H		-1.2428		4.0348		-2.2039		H		1		UNL1		0.1482
36		H		-2.2796		5.1560		-1.3058		H		1		UNL1		0.1468
37		H		-2.6338		3.4202		-1.2881		H		1		UNL1		0.1632
38		H		1.1195		-1.6520		0.1150		H		1		UNL1		0.3512
39		H		4.0321		0.6721		-0.1099		H		1		UNL1		0.1993
40		H		6.3491		-0.1864		-0.1804		H		1		UNL1		0.1611
41		H		4.8782		-4.2238		0.0458		H		1		UNL1		0.1586
42		H		2.5670		-3.3715		0.1165		H		1		UNL1		0.1379
43		H		-2.2514		0.0269		2.3731		H		1		UNL1		0.1445
44		H		-3.6138		-2.0155		2.7403		H		1		UNL1		0.1400
45		H		-5.1772		-3.7390		1.8644		H		1		UNL1		0.1342
46		H		-6.5143		-4.6596		-0.0013		H		1		UNL1		0.1353
47		H		-6.4901		-3.5458		-2.2286		H		1		UNL1		0.1360
48		H		-5.1318		-1.5134		-2.5919		H		1		UNL1		0.1352
49		H		-3.5498		0.2200		-1.7106		H		1		UNL1		0.1448
@<TRIPOS>BOND
1		48		28		1
2		47		27		1
3		35		3		1
4		49		30		1
5		28		27		ar
6		28		29		ar
7		27		26		ar
8		36		3		1
9		37		3		1
10		3		2		1
11		30		29		ar
12		30		21		ar
13		29		24		ar
14		6		5		1
15		40		12		1
16		26		46		1
17		26		25		ar
18		15		14		3
19		12		11		ar
20		12		13		ar
21		14		13		1
22		39		11		1
23		34		2		1
24		11		10		ar
25		5		7		ar
26		5		4		ar
27		13		16		ar
28		7		8		ar
29		2		4		1
30		2		1		1
31		4		19		ar
32		10		17		ar
33		10		9		1
34		16		41		1
35		16		17		ar
36		8		9		1
37		8		18		ar
38		17		42		1
39		9		38		1
40		19		18		ar
41		19		20		1
42		20		21		1
43		21		22		ar
44		24		25		ar
45		24		23		ar
46		25		45		1
47		32		1		1
48		1		33		1
49		1		31		1
50		22		23		ar
51		22		43		1
52		23		44		1

