@<TRIPOS>MOLECULE
WHQ-2014-SQER-761-16
 40 43 0 0 0
SMALL
MULLIKEN_CHARGES
****
Gaussian 16 #p B3LYP/6-31G* opt
@<TRIPOS>ATOM
1		N		8.0091		2.5898		-0.1068		N.1		1		UNL1		-0.4854
2		C		6.9504		2.1060		-0.0840		C.1		1		UNL1		0.2270
3		C		5.6484		1.5133		-0.0555		C.ar		1		UNL1		0.1310
4		C		5.4923		0.1221		-0.1698		C.ar		1		UNL1		-0.1534
5		C		4.2341		-0.4664		-0.1433		C.ar		1		UNL1		-0.1595
6		C		3.0888		0.3388		0.0004		C.ar		1		UNL1		0.3825
7		N		1.7827		-0.1492		0.0407		N.pl3		1		UNL1		-0.7596
8		C		1.2626		-1.4232		-0.0480		C.ar		1		UNL1		0.6862
9		N		2.0695		-2.4779		-0.2037		N.ar		1		UNL1		-0.4825
10		C		1.4483		-3.6656		-0.2781		C.ar		1		UNL1		0.0740
11		C		0.0746		-3.8206		-0.2022		C.ar		1		UNL1		-0.1910
12		C		-0.6659		-2.6340		-0.0398		C.ar		1		UNL1		0.1246
13		S		-2.4422		-2.7716		0.0620		S.3		1		UNL1		0.1544
14		C		-2.9810		-1.0792		0.2987		C.ar		1		UNL1		-0.0882
15		C		-2.7833		-0.4291		1.5469		C.ar		1		UNL1		-0.1289
16		C		-3.2681		0.8413		1.7439		C.ar		1		UNL1		-0.1894
17		C		-3.9827		1.5233		0.7206		C.ar		1		UNL1		0.1365
18		C		-4.5013		2.8330		0.8983		C.ar		1		UNL1		-0.1920
19		C		-5.1894		3.4615		-0.1158		C.ar		1		UNL1		-0.1318
20		C		-5.3921		2.8083		-1.3561		C.ar		1		UNL1		-0.1355
21		C		-4.9034		1.5373		-1.5593		C.ar		1		UNL1		-0.1866
22		C		-4.1893		0.8622		-0.5334		C.ar		1		UNL1		0.1402
23		C		-3.6685		-0.4472		-0.7156		C.ar		1		UNL1		-0.2100
24		N		-0.0861		-1.4454		0.0384		N.ar		1		UNL1		-0.5097
25		C		3.2456		1.7355		0.1149		C.ar		1		UNL1		-0.2057
26		C		4.5026		2.3159		0.0877		C.ar		1		UNL1		-0.1406
27		H		6.3715		-0.5048		-0.2809		H		1		UNL1		0.1578
28		H		4.1211		-1.5372		-0.2323		H		1		UNL1		0.1898
29		H		1.0516		0.5426		0.1495		H		1		UNL1		0.3497
30		H		2.0966		-4.5308		-0.4045		H		1		UNL1		0.1564
31		H		-0.3985		-4.7937		-0.2637		H		1		UNL1		0.1582
32		H		-2.2481		-0.9456		2.3368		H		1		UNL1		0.1500
33		H		-3.1162		1.3401		2.6981		H		1		UNL1		0.1378
34		H		-4.3461		3.3331		1.8513		H		1		UNL1		0.1352
35		H		-5.5811		4.4641		0.0327		H		1		UNL1		0.1368
36		H		-5.9367		3.3155		-2.1476		H		1		UNL1		0.1370
37		H		-5.0574		1.0322		-2.5098		H		1		UNL1		0.1373
38		H		-3.8167		-0.9475		-1.6684		H		1		UNL1		0.1529
39		H		2.3666		2.3662		0.2255		H		1		UNL1		0.1373
40		H		4.6064		3.3924		0.1768		H		1		UNL1		0.1573
@<TRIPOS>BOND
1		37		21		1
2		36		20		1
3		38		23		1
4		21		20		ar
5		21		22		ar
6		20		19		ar
7		23		22		ar
8		23		14		ar
9		22		17		ar
10		30		10		1
11		27		4		1
12		10		9		ar
13		10		11		ar
14		31		11		1
15		28		5		1
16		9		8		ar
17		11		12		ar
18		4		5		ar
19		4		3		ar
20		5		6		ar
21		19		35		1
22		19		18		ar
23		1		2		3
24		2		3		1
25		3		26		ar
26		8		24		ar
27		8		7		1
28		12		24		ar
29		12		13		1
30		6		7		1
31		6		25		ar
32		7		29		1
33		13		14		1
34		26		25		ar
35		26		40		1
36		25		39		1
37		14		15		ar
38		17		18		ar
39		17		16		ar
40		18		34		1
41		15		16		ar
42		15		32		1
43		16		33		1

