@<TRIPOS>MOLECULE
WHQ-2014-SQER-761-14
 43 46 0 0 0
SMALL
MULLIKEN_CHARGES
****
Gaussian 16 #p B3LYP/6-31G* opt
@<TRIPOS>ATOM
1		C		-2.5001		4.5421		-0.3364		C.3		1		UNL1		-0.5129
2		C		-1.5335		3.3983		-0.1877		C.ar		1		UNL1		0.3447
3		C		-0.1607		3.5990		-0.1100		C.ar		1		UNL1		-0.2280
4		C		0.6384		2.4498		0.0262		C.ar		1		UNL1		0.1280
5		S		2.4062		2.6806		0.1249		S.3		1		UNL1		0.1511
6		C		3.0366		1.0155		0.3264		C.ar		1		UNL1		-0.0869
7		C		2.8719		0.3272		1.5590		C.ar		1		UNL1		-0.1285
8		C		3.4270		-0.9179		1.7301		C.ar		1		UNL1		-0.1896
9		C		4.1825		-1.5355		0.6953		C.ar		1		UNL1		0.1365
10		C		4.7737		-2.8174		0.8464		C.ar		1		UNL1		-0.1920
11		C		5.4996		-3.3835		-0.1781		C.ar		1		UNL1		-0.1320
12		C		5.6689		-2.6924		-1.4028		C.ar		1		UNL1		-0.1356
13		C		5.1097		-1.4468		-1.5801		C.ar		1		UNL1		-0.1867
14		C		4.3552		-0.8360		-0.5427		C.ar		1		UNL1		0.1404
15		C		3.7618		0.4456		-0.6984		C.ar		1		UNL1		-0.2108
16		N		0.1251		1.2304		0.0825		N.ar		1		UNL1		-0.5154
17		C		-1.2217		1.1499		-0.0013		C.ar		1		UNL1		0.6855
18		N		-1.6800		-0.1508		0.0630		N.pl3		1		UNL1		-0.7648
19		C		-2.9600		-0.7009		0.0165		C.ar		1		UNL1		0.3829
20		C		-3.0493		-2.1057		0.1054		C.ar		1		UNL1		-0.2058
21		C		-4.2767		-2.7456		0.0697		C.ar		1		UNL1		-0.1408
22		C		-5.4607		-1.9972		-0.0568		C.ar		1		UNL1		0.1307
23		C		-6.7326		-2.6512		-0.0941		C.1		1		UNL1		0.2264
24		N		-7.7671		-3.1846		-0.1241		N.1		1		UNL1		-0.4862
25		C		-5.3720		-0.5981		-0.1457		C.ar		1		UNL1		-0.1538
26		C		-4.1438		0.0499		-0.1105		C.ar		1		UNL1		-0.1598
27		N		-2.0768		2.1646		-0.1334		N.ar		1		UNL1		-0.5353
28		H		-3.2085		4.5473		0.4996		H		1		UNL1		0.1797
29		H		-3.0871		4.4217		-1.2539		H		1		UNL1		0.1800
30		H		-1.9865		5.5065		-0.3701		H		1		UNL1		0.1592
31		H		0.2725		4.5918		-0.1520		H		1		UNL1		0.1514
32		H		2.3056		0.7949		2.3574		H		1		UNL1		0.1496
33		H		3.3003		-1.4457		2.6724		H		1		UNL1		0.1371
34		H		4.6440		-3.3466		1.7875		H		1		UNL1		0.1347
35		H		5.9468		-4.3654		-0.0501		H		1		UNL1		0.1363
36		H		6.2437		-3.1503		-2.2030		H		1		UNL1		0.1364
37		H		5.2378		-0.9128		-2.5186		H		1		UNL1		0.1368
38		H		3.8844		0.9744		-1.6394		H		1		UNL1		0.1523
39		H		-0.9153		-0.8076		0.1563		H		1		UNL1		0.3491
40		H		-2.1405		-2.6950		0.2030		H		1		UNL1		0.1370
41		H		-4.3280		-3.8274		0.1391		H		1		UNL1		0.1568
42		H		-6.2810		-0.0127		-0.2437		H		1		UNL1		0.1564
43		H		-4.0817		1.1262		-0.1797		H		1		UNL1		0.1860
@<TRIPOS>BOND
1		37		13		1
2		36		12		1
3		38		15		1
4		13		12		ar
5		13		14		ar
6		12		11		ar
7		29		1		1
8		15		14		ar
9		15		6		ar
10		14		9		ar
11		30		1		1
12		1		2		1
13		1		28		1
14		42		25		1
15		2		27		ar
16		2		3		ar
17		43		26		1
18		11		35		1
19		11		10		ar
20		31		3		1
21		25		26		ar
22		25		22		ar
23		27		17		ar
24		24		23		3
25		26		19		ar
26		3		4		ar
27		23		22		1
28		22		21		ar
29		17		18		1
30		17		16		ar
31		19		18		1
32		19		20		ar
33		4		16		ar
34		4		5		1
35		18		39		1
36		21		20		ar
37		21		41		1
38		20		40		1
39		5		6		1
40		6		7		ar
41		9		10		ar
42		9		8		ar
43		10		34		1
44		7		8		ar
45		7		32		1
46		8		33		1

