@<TRIPOS>MOLECULE
WYP-2009-EJMC-1016-5T
 54 56 0 0 0
SMALL
MULLIKEN_CHARGES
****
Gaussian 16 #p B3LYP/6-31G* opt
@<TRIPOS>ATOM
1		C		0.5081		5.0081		0.1055		C.3		1		UNL1		-0.4456
2		C		0.6525		3.6053		-0.5130		C.3		1		UNL1		-0.3345
3		C		-0.0876		2.5402		0.2601		C.ar		1		UNL1		0.0478
4		C		0.4631		1.6925		1.1916		C.ar		1		UNL1		0.2271
5		C		1.9354		1.7090		1.5708		C.3		1		UNL1		-0.4212
6		C		2.7487		0.6404		0.8544		C.ar		1		UNL1		0.1588
7		C		2.4839		-0.7197		1.0641		C.ar		1		UNL1		-0.1976
8		C		3.2308		-1.6959		0.4052		C.ar		1		UNL1		-0.0134
9		C		2.8870		-3.1505		0.5942		C.3		1		UNL1		0.7915
10		F		2.4081		-3.3969		1.8323		F		1		UNL1		-0.2671
11		F		1.9382		-3.5540		-0.2828		F		1		UNL1		-0.2600
12		F		3.9609		-3.9492		0.4057		F		1		UNL1		-0.2695
13		C		4.2589		-1.3375		-0.4688		C.ar		1		UNL1		-0.1971
14		C		4.5284		0.0129		-0.6768		C.ar		1		UNL1		-0.0115
15		C		5.6754		0.4248		-1.5613		C.3		1		UNL1		0.7899
16		F		6.8057		0.6306		-0.8458		F		1		UNL1		-0.2591
17		F		5.9605		-0.5142		-2.4887		F		1		UNL1		-0.2678
18		F		5.4122		1.5783		-2.2154		F		1		UNL1		-0.2696
19		C		3.7779		0.9938		-0.0218		C.ar		1		UNL1		-0.2118
20		N		-0.2570		0.7388		1.8816		N.ar		1		UNL1		-0.5156
21		C		-1.5255		0.6220		1.6164		C.ar		1		UNL1		0.3299
22		S		-2.3858		-0.6549		2.5070		S.3		1		UNL1		0.1925
23		C		-4.1802		-0.2458		2.2990		C.3		1		UNL1		-0.5470
24		C		-4.7845		-0.4288		0.9242		C.ar		1		UNL1		0.1344
25		C		-4.6225		-1.6122		0.1952		C.ar		1		UNL1		-0.1713
26		C		-5.2221		-1.7863		-1.0513		C.ar		1		UNL1		-0.1923
27		C		-6.0048		-0.7588		-1.5983		C.ar		1		UNL1		0.3813
28		O		-6.6313		-0.8200		-2.8042		O.3		1		UNL1		-0.5017
29		C		-6.4793		-1.9952		-3.5882		C.3		1		UNL1		-0.2201
30		C		-6.1740		0.4337		-0.8817		C.ar		1		UNL1		-0.1587
31		C		-5.5712		0.5905		0.3613		C.ar		1		UNL1		-0.2010
32		N		-2.1638		1.4099		0.7128		N.ar		1		UNL1		-0.6517
33		C		-1.5137		2.4344		-0.0179		C.ar		1		UNL1		0.5762
34		O		-2.1621		3.1151		-0.8042		O.2		1		UNL1		-0.5247
35		H		-0.5472		5.2926		0.1576		H		1		UNL1		0.1718
36		H		1.0318		5.7541		-0.5029		H		1		UNL1		0.1471
37		H		0.9230		5.0438		1.1198		H		1		UNL1		0.1397
38		H		1.7110		3.3442		-0.6087		H		1		UNL1		0.1368
39		H		0.2393		3.6286		-1.5271		H		1		UNL1		0.1736
40		H		2.3732		2.6907		1.3771		H		1		UNL1		0.1633
41		H		1.9881		1.5357		2.6516		H		1		UNL1		0.1853
42		H		1.6876		-1.0078		1.7420		H		1		UNL1		0.1853
43		H		4.8404		-2.0985		-0.9754		H		1		UNL1		0.1731
44		H		4.0020		2.0413		-0.1998		H		1		UNL1		0.1559
45		H		-4.6394		-0.9267		3.0256		H		1		UNL1		0.2083
46		H		-4.3515		0.7692		2.6705		H		1		UNL1		0.1944
47		H		-4.0079		-2.4119		0.6003		H		1		UNL1		0.1512
48		H		-5.0709		-2.7166		-1.5863		H		1		UNL1		0.1429
49		H		-7.0511		-1.8196		-4.5007		H		1		UNL1		0.1768
50		H		-5.4275		-2.1724		-3.8472		H		1		UNL1		0.1587
51		H		-6.8802		-2.8777		-3.0730		H		1		UNL1		0.1553
52		H		-6.7759		1.2237		-1.3186		H		1		UNL1		0.1526
53		H		-5.7219		1.5200		0.9068		H		1		UNL1		0.1417
54		H		-3.1354		1.2519		0.4584		H		1		UNL1		0.3667
@<TRIPOS>BOND
1		49		29		1
2		50		29		1
3		29		51		1
4		29		28		1
5		28		27		1
6		17		15		1
7		18		15		1
8		27		26		ar
9		27		30		ar
10		48		26		1
11		15		16		1
12		15		14		1
13		39		2		1
14		52		30		1
15		26		25		ar
16		43		13		1
17		30		31		ar
18		34		33		2
19		14		13		ar
20		14		19		ar
21		38		2		1
22		2		1		1
23		2		3		1
24		36		1		1
25		13		8		ar
26		11		9		1
27		44		19		1
28		19		6		ar
29		33		3		ar
30		33		32		ar
31		1		35		1
32		1		37		1
33		25		47		1
34		25		24		ar
35		3		4		ar
36		31		53		1
37		31		24		ar
38		8		9		1
39		8		7		ar
40		12		9		1
41		54		32		1
42		9		10		1
43		32		21		ar
44		6		7		ar
45		6		5		1
46		24		23		1
47		7		42		1
48		4		5		1
49		4		20		ar
50		40		5		1
51		5		41		1
52		21		20		ar
53		21		22		1
54		23		22		1
55		23		46		1
56		23		45		1

