@<TRIPOS>MOLECULE
WYP-2009-EJMC-1016-5L
 46 48 0 0 0
SMALL
MULLIKEN_CHARGES
****
Gaussian 16 #p B3LYP/6-31G* opt
@<TRIPOS>ATOM
1		C		5.1405		1.6757		-1.0129		C.3		1		UNL1		-0.4481
2		C		4.4220		2.1216		0.2746		C.3		1		UNL1		-0.3267
3		C		2.9194		2.0162		0.1904		C.ar		1		UNL1		0.0488
4		C		2.1429		1.0486		0.7818		C.ar		1		UNL1		0.2511
5		C		2.6947		-0.0858		1.6430		C.3		1		UNL1		-0.4402
6		C		3.6300		-1.0832		0.9787		C.ar		1		UNL1		0.1777
7		C		4.9551		-1.2032		1.4253		C.ar		1		UNL1		-0.1955
8		C		5.8448		-2.1220		0.8719		C.ar		1		UNL1		-0.1195
9		C		5.4209		-2.9615		-0.1575		C.ar		1		UNL1		-0.1307
10		C		4.1061		-2.8824		-0.6140		C.ar		1		UNL1		-0.1425
11		C		3.2324		-1.9577		-0.0432		C.ar		1		UNL1		0.0226
12		BR		1.4266		-1.9480		-0.6940		Br		1		UNL1		-0.1314
13		N		0.7614		1.0364		0.7043		N.ar		1		UNL1		-0.5146
14		C		0.1771		1.9476		-0.0067		C.ar		1		UNL1		0.3277
15		S		-1.5914		1.9721		-0.2085		S.3		1		UNL1		0.1596
16		C		-2.0188		0.3899		0.6571		C.3		1		UNL1		-0.4996
17		C		-3.4818		0.0976		0.4489		C.ar		1		UNL1		0.1585
18		C		-3.9097		-0.6328		-0.6699		C.ar		1		UNL1		-0.1733
19		C		-5.2584		-0.9108		-0.8679		C.ar		1		UNL1		-0.1475
20		C		-6.1800		-0.4452		0.0680		C.ar		1		UNL1		0.2750
21		N		-7.6090		-0.7374		-0.1312		N.pl3		1		UNL1		0.3810
22		O		-7.9255		-1.3857		-1.1280		O.2		1		UNL1		-0.3920
23		O		-8.4007		-0.3155		0.7111		O.2		1		UNL1		-0.3924
24		C		-5.7900		0.2857		1.1878		C.ar		1		UNL1		-0.1467
25		C		-4.4364		0.5536		1.3698		C.ar		1		UNL1		-0.1769
26		N		0.8604		2.9322		-0.6533		N.ar		1		UNL1		-0.6506
27		C		2.2658		3.0600		-0.5940		C.ar		1		UNL1		0.5830
28		O		2.8124		3.9887		-1.1772		O.2		1		UNL1		-0.5235
29		H		6.2242		1.7993		-0.9061		H		1		UNL1		0.1413
30		H		4.8108		2.2841		-1.8597		H		1		UNL1		0.1734
31		H		4.9379		0.6235		-1.2369		H		1		UNL1		0.1525
32		H		4.6715		3.1727		0.4622		H		1		UNL1		0.1662
33		H		4.7947		1.5443		1.1251		H		1		UNL1		0.1313
34		H		1.8219		-0.6165		2.0359		H		1		UNL1		0.1881
35		H		3.2198		0.3479		2.5025		H		1		UNL1		0.1672
36		H		5.2904		-0.5555		2.2316		H		1		UNL1		0.1379
37		H		6.8631		-2.1807		1.2451		H		1		UNL1		0.1406
38		H		6.1020		-3.6814		-0.6020		H		1		UNL1		0.1438
39		H		3.7528		-3.5361		-1.4038		H		1		UNL1		0.1571
40		H		-1.3733		-0.3877		0.2446		H		1		UNL1		0.2205
41		H		-1.7727		0.5088		1.7137		H		1		UNL1		0.2082
42		H		-3.1785		-0.9878		-1.3908		H		1		UNL1		0.1552
43		H		-5.6044		-1.4775		-1.7234		H		1		UNL1		0.1881
44		H		-6.5389		0.6272		1.8916		H		1		UNL1		0.1877
45		H		-4.1157		1.1208		2.2393		H		1		UNL1		0.1539
46		H		0.3855		3.6309		-1.2163		H		1		UNL1		0.3538
@<TRIPOS>BOND
1		30		1		1
2		43		19		1
3		39		10		1
4		42		18		1
5		31		1		1
6		46		26		1
7		28		27		2
8		22		21		2
9		1		29		1
10		1		2		1
11		19		18		ar
12		19		20		ar
13		12		11		1
14		18		17		ar
15		26		27		ar
16		26		14		ar
17		10		9		ar
18		10		11		ar
19		38		9		1
20		27		3		ar
21		15		14		1
22		15		16		1
23		9		8		ar
24		21		20		1
25		21		23		2
26		11		6		ar
27		14		13		ar
28		20		24		ar
29		3		2		1
30		3		4		ar
31		40		16		1
32		2		32		1
33		2		33		1
34		17		16		1
35		17		25		ar
36		16		41		1
37		13		4		ar
38		4		5		1
39		8		37		1
40		8		7		ar
41		6		7		ar
42		6		5		1
43		24		25		ar
44		24		44		1
45		25		45		1
46		7		36		1
47		5		34		1
48		5		35		1

