@<TRIPOS>MOLECULE
WYP-2008-CB-168-6D
 51 54 0 0 0
SMALL
MULLIKEN_CHARGES
****
Gaussian 16 #p B3LYP/6-31G* opt
@<TRIPOS>ATOM
1		C		2.1322		-2.4823		2.3273		C.3		1		UNL1		-0.4471
2		C		1.9415		-3.0374		0.9035		C.3		1		UNL1		-0.3217
3		C		1.0579		-2.1749		0.0344		C.ar		1		UNL1		0.0372
4		C		1.4800		-1.3360		-0.9749		C.ar		1		UNL1		0.2628
5		C		2.9449		-1.1796		-1.3786		C.3		1		UNL1		-0.4519
6		C		3.8472		-0.3957		-0.4311		C.ar		1		UNL1		0.1414
7		C		4.8672		-1.0546		0.2287		C.ar		1		UNL1		-0.2113
8		C		5.7539		-0.3831		1.1027		C.ar		1		UNL1		-0.1291
9		C		5.6225		0.9679		1.3107		C.ar		1		UNL1		-0.1932
10		C		4.6071		1.7021		0.6417		C.ar		1		UNL1		0.1439
11		C		4.4749		3.1044		0.8262		C.ar		1		UNL1		-0.1975
12		C		3.5050		3.8199		0.1627		C.ar		1		UNL1		-0.1310
13		C		2.6218		3.1550		-0.7189		C.ar		1		UNL1		-0.1424
14		C		2.7165		1.7942		-0.9170		C.ar		1		UNL1		-0.2023
15		C		3.7043		1.0210		-0.2448		C.ar		1		UNL1		0.0642
16		N		0.6230		-0.5952		-1.7590		N.ar		1		UNL1		-0.5845
17		C		-0.6600		-0.6623		-1.5035		C.ar		1		UNL1		0.7469
18		N		-1.5230		0.1083		-2.2486		N.pl3		1		UNL1		-0.6233
19		C		-2.9336		-0.2172		-2.4413		C.3		1		UNL1		-0.2328
20		C		-3.8263		0.1483		-1.2634		C.ar		1		UNL1		0.1204
21		C		-4.9043		-0.6748		-0.9184		C.ar		1		UNL1		-0.1829
22		C		-5.7696		-0.3311		0.1214		C.ar		1		UNL1		-0.1230
23		C		-5.5449		0.8501		0.8252		C.ar		1		UNL1		-0.0642
24		CL		-6.6234		1.2938		2.1383		Cl		1		UNL1		-0.0116
25		C		-4.4708		1.6828		0.5075		C.ar		1		UNL1		-0.1265
26		C		-3.6184		1.3267		-0.5353		C.ar		1		UNL1		-0.1566
27		N		-1.1703		-1.4514		-0.5205		N.ar		1		UNL1		-0.6921
28		C		-0.3652		-2.2652		0.3137		C.ar		1		UNL1		0.5778
29		O		-0.9101		-2.9556		1.1697		O.2		1		UNL1		-0.5350
30		H		1.1638		-2.3820		2.8258		H		1		UNL1		0.1696
31		H		2.6209		-1.5030		2.3080		H		1		UNL1		0.1536
32		H		2.7529		-3.1618		2.9233		H		1		UNL1		0.1348
33		H		1.4744		-4.0268		0.9796		H		1		UNL1		0.1583
34		H		2.9174		-3.1787		0.4304		H		1		UNL1		0.1277
35		H		3.3820		-2.1757		-1.5083		H		1		UNL1		0.1611
36		H		2.9436		-0.7069		-2.3663		H		1		UNL1		0.1725
37		H		4.9975		-2.1226		0.0724		H		1		UNL1		0.1252
38		H		6.5369		-0.9449		1.6048		H		1		UNL1		0.1292
39		H		6.2965		1.4960		1.9811		H		1		UNL1		0.1279
40		H		5.1636		3.6051		1.5031		H		1		UNL1		0.1273
41		H		3.4175		4.8929		0.3115		H		1		UNL1		0.1262
42		H		1.8597		3.7242		-1.2452		H		1		UNL1		0.1209
43		H		2.0209		1.3001		-1.5865		H		1		UNL1		0.1661
44		H		-1.0413		0.5333		-3.0302		H		1		UNL1		0.3436
45		H		-3.2556		0.3434		-3.3262		H		1		UNL1		0.1808
46		H		-3.0670		-1.2826		-2.6834		H		1		UNL1		0.1659
47		H		-5.0772		-1.5986		-1.4663		H		1		UNL1		0.1432
48		H		-6.6011		-0.9750		0.3868		H		1		UNL1		0.1639
49		H		-4.3050		2.5943		1.0717		H		1		UNL1		0.1637
50		H		-2.7733		1.9632		-0.7805		H		1		UNL1		0.1540
51		H		-2.1585		-1.4447		-0.2895		H		1		UNL1		0.3499
@<TRIPOS>BOND
1		45		19		1
2		44		18		1
3		46		19		1
4		19		18		1
5		19		20		1
6		36		5		1
7		18		17		1
8		16		17		ar
9		16		4		ar
10		43		14		1
11		35		5		1
12		17		27		ar
13		47		21		1
14		5		4		1
15		5		6		1
16		20		21		ar
17		20		26		ar
18		42		13		1
19		4		3		ar
20		21		22		ar
21		14		13		ar
22		14		15		ar
23		50		26		1
24		13		12		ar
25		26		25		ar
26		27		51		1
27		27		28		ar
28		6		15		ar
29		6		7		ar
30		15		10		ar
31		3		28		ar
32		3		2		1
33		37		7		1
34		22		48		1
35		22		23		ar
36		12		41		1
37		12		11		ar
38		7		8		ar
39		28		29		2
40		34		2		1
41		25		23		ar
42		25		49		1
43		10		11		ar
44		10		9		ar
45		23		24		1
46		11		40		1
47		2		33		1
48		2		1		1
49		8		9		ar
50		8		38		1
51		9		39		1
52		31		1		1
53		1		30		1
54		1		32		1

