@<TRIPOS>MOLECULE
WYP-2009-EJMC-1016-5Y
 57 60 0 0 0
SMALL
MULLIKEN_CHARGES
****
Gaussian 16 #p B3LYP/6-31G* opt
@<TRIPOS>ATOM
1		C		-8.3143		0.6810		0.4871		C.3		1		UNL1		-0.2168
2		O		-7.4013		0.1714		-0.4724		O.3		1		UNL1		-0.5045
3		C		-6.0662		0.2976		-0.2257		C.ar		1		UNL1		0.3780
4		C		-5.5189		0.8907		0.9182		C.ar		1		UNL1		-0.1945
5		C		-4.1312		0.9595		1.0605		C.ar		1		UNL1		-0.1745
6		C		-3.2692		0.4460		0.0879		C.ar		1		UNL1		0.1392
7		C		-1.7763		0.5245		0.2554		C.3		1		UNL1		-0.4922
8		S		-1.1569		2.0966		-0.5213		S.3		1		UNL1		0.1468
9		C		0.5900		1.9195		-0.2576		C.ar		1		UNL1		0.3216
10		N		1.0846		0.9163		0.3997		N.ar		1		UNL1		-0.5119
11		C		2.4541		0.8433		0.5570		C.ar		1		UNL1		0.2416
12		C		2.8947		-0.3875		1.3439		C.3		1		UNL1		-0.4483
13		C		1.9791		-1.5932		1.2409		C.ar		1		UNL1		0.1615
14		C		1.2572		-1.9947		2.3466		C.ar		1		UNL1		-0.2095
15		C		0.4138		-3.1303		2.3161		C.ar		1		UNL1		-0.1312
16		C		0.2979		-3.8720		1.1656		C.ar		1		UNL1		-0.1934
17		C		1.0225		-3.5073		-0.0009		C.ar		1		UNL1		0.1378
18		C		0.9237		-4.2660		-1.1981		C.ar		1		UNL1		-0.1973
19		C		1.6300		-3.9118		-2.3248		C.ar		1		UNL1		-0.1324
20		C		2.4694		-2.7737		-2.3007		C.ar		1		UNL1		-0.1413
21		C		2.5870		-2.0162		-1.1557		C.ar		1		UNL1		-0.1986
22		C		1.8754		-2.3526		0.0292		C.ar		1		UNL1		0.0815
23		C		3.3295		1.8017		0.0906		C.ar		1		UNL1		0.0274
24		C		4.8469		1.8440		0.2524		C.3		1		UNL1		-0.1549
25		C		5.5835		0.8427		-0.6609		C.3		1		UNL1		-0.4494
26		C		5.3378		1.7646		1.7105		C.3		1		UNL1		-0.4489
27		C		2.7751		2.9294		-0.6603		C.ar		1		UNL1		0.5698
28		O		3.3973		3.8548		-1.1727		O.2		1		UNL1		-0.5297
29		N		1.3709		2.9001		-0.7894		N.ar		1		UNL1		-0.6462
30		C		-3.8371		-0.1428		-1.0542		C.ar		1		UNL1		-0.1673
31		C		-5.2134		-0.2204		-1.2127		C.ar		1		UNL1		-0.1715
32		H		-8.1920		1.7634		0.6254		H		1		UNL1		0.1543
33		H		-8.2029		0.1786		1.4570		H		1		UNL1		0.1533
34		H		-9.3102		0.4788		0.0889		H		1		UNL1		0.1724
35		H		-6.1543		1.2955		1.6974		H		1		UNL1		0.1348
36		H		-3.7163		1.4217		1.9533		H		1		UNL1		0.1344
37		H		-1.4749		0.5404		1.3039		H		1		UNL1		0.2038
38		H		-1.2555		-0.3013		-0.2323		H		1		UNL1		0.2148
39		H		3.9112		-0.6640		1.0519		H		1		UNL1		0.1693
40		H		2.9552		-0.0986		2.4013		H		1		UNL1		0.1734
41		H		1.3370		-1.4224		3.2678		H		1		UNL1		0.1218
42		H		-0.1376		-3.4113		3.2094		H		1		UNL1		0.1280
43		H		-0.3445		-4.7488		1.1313		H		1		UNL1		0.1278
44		H		0.2751		-5.1392		-1.2065		H		1		UNL1		0.1285
45		H		1.5452		-4.5026		-3.2329		H		1		UNL1		0.1292
46		H		3.0239		-2.4945		-3.1926		H		1		UNL1		0.1302
47		H		3.2272		-1.1406		-1.1629		H		1		UNL1		0.1431
48		H		5.1207		2.8391		-0.1122		H		1		UNL1		0.1777
49		H		5.2809		0.9738		-1.7054		H		1		UNL1		0.1545
50		H		5.3976		-0.2012		-0.3827		H		1		UNL1		0.1446
51		H		6.6662		1.0073		-0.6030		H		1		UNL1		0.1454
52		H		4.8076		2.4836		2.3450		H		1		UNL1		0.1477
53		H		6.4063		2.0071		1.7526		H		1		UNL1		0.1448
54		H		5.2141		0.7702		2.1511		H		1		UNL1		0.1415
55		H		0.9719		3.6685		-1.3191		H		1		UNL1		0.3520
56		H		-3.1879		-0.5488		-1.8262		H		1		UNL1		0.1393
57		H		-5.6557		-0.6798		-2.0911		H		1		UNL1		0.1425
@<TRIPOS>BOND
1		45		19		1
2		46		20		1
3		19		20		ar
4		19		18		ar
5		20		21		ar
6		57		31		1
7		56		30		1
8		49		25		1
9		55		29		1
10		31		30		ar
11		31		3		ar
12		44		18		1
13		18		17		ar
14		28		27		2
15		47		21		1
16		21		22		ar
17		30		6		ar
18		29		27		ar
19		29		9		ar
20		25		51		1
21		25		50		1
22		25		24		1
23		27		23		ar
24		8		9		1
25		8		7		1
26		2		3		1
27		2		1		1
28		9		10		ar
29		38		7		1
30		3		4		ar
31		48		24		1
32		17		22		ar
33		17		16		ar
34		22		13		ar
35		6		7		1
36		6		5		ar
37		34		1		1
38		23		24		1
39		23		11		ar
40		24		26		1
41		7		37		1
42		10		11		ar
43		1		32		1
44		1		33		1
45		11		12		1
46		4		5		ar
47		4		35		1
48		39		12		1
49		5		36		1
50		43		16		1
51		16		15		ar
52		13		12		1
53		13		14		ar
54		12		40		1
55		26		53		1
56		26		54		1
57		26		52		1
58		15		14		ar
59		15		42		1
60		14		41		1

