@<TRIPOS>MOLECULE
WYP-2008-CB-168-6B
 51 54 0 0 0
SMALL
MULLIKEN_CHARGES
****
Gaussian 16 #p B3LYP/6-31G* opt
@<TRIPOS>ATOM
1		C		0.5167		4.2387		0.2153		C.3		1		UNL1		-0.4451
2		C		0.9945		2.9933		-0.5547		C.3		1		UNL1		-0.3371
3		C		0.2304		1.7442		-0.1864		C.ar		1		UNL1		0.0410
4		C		0.6332		0.7921		0.7250		C.ar		1		UNL1		0.2578
5		C		1.9499		0.8800		1.4969		C.3		1		UNL1		-0.4467
6		C		3.2370		0.5692		0.7377		C.ar		1		UNL1		0.1418
7		C		4.1683		1.5755		0.5588		C.ar		1		UNL1		-0.2132
8		C		5.3933		1.3570		-0.1137		C.ar		1		UNL1		-0.1303
9		C		5.6944		0.1108		-0.6052		C.ar		1		UNL1		-0.1932
10		C		4.7890		-0.9689		-0.4271		C.ar		1		UNL1		0.1442
11		C		5.1007		-2.2709		-0.9022		C.ar		1		UNL1		-0.1978
12		C		4.2370		-3.3240		-0.7076		C.ar		1		UNL1		-0.1310
13		C		3.0177		-3.1140		-0.0232		C.ar		1		UNL1		-0.1430
14		C		2.6785		-1.8625		0.4441		C.ar		1		UNL1		-0.2020
15		C		3.5437		-0.7484		0.2556		C.ar		1		UNL1		0.0621
16		N		-0.1212		-0.3088		1.0618		N.ar		1		UNL1		-0.5865
17		C		-1.2910		-0.4535		0.4874		C.ar		1		UNL1		0.7488
18		N		-2.0721		-1.5271		0.8420		N.pl3		1		UNL1		-0.6221
19		C		-3.1180		-2.0874		-0.0110		C.3		1		UNL1		-0.2329
20		C		-4.4083		-1.2796		-0.0318		C.ar		1		UNL1		0.1197
21		C		-5.1107		-1.1136		-1.2314		C.ar		1		UNL1		-0.1875
22		C		-6.3198		-0.4144		-1.2570		C.ar		1		UNL1		-0.1221
23		C		-6.8352		0.1303		-0.0812		C.ar		1		UNL1		-0.1254
24		C		-6.1363		-0.0253		1.1191		C.ar		1		UNL1		-0.1268
25		C		-4.9310		-0.7250		1.1441		C.ar		1		UNL1		-0.1593
26		N		-1.7722		0.4320		-0.4264		N.ar		1		UNL1		-0.6928
27		C		-1.0683		1.5962		-0.8197		C.ar		1		UNL1		0.5777
28		O		-1.5908		2.3611		-1.6252		O.2		1		UNL1		-0.5379
29		H		-0.5444		4.4221		0.0205		H		1		UNL1		0.1688
30		H		1.0780		5.1273		-0.0974		H		1		UNL1		0.1388
31		H		0.6495		4.1179		1.2974		H		1		UNL1		0.1339
32		H		0.8492		3.1734		-1.6257		H		1		UNL1		0.1641
33		H		2.0652		2.8437		-0.4004		H		1		UNL1		0.1446
34		H		2.0443		1.8903		1.9095		H		1		UNL1		0.1623
35		H		1.8516		0.2003		2.3503		H		1		UNL1		0.1730
36		H		3.9581		2.5675		0.9515		H		1		UNL1		0.1272
37		H		6.0903		2.1817		-0.2361		H		1		UNL1		0.1287
38		H		6.6315		-0.0708		-1.1263		H		1		UNL1		0.1273
39		H		6.0450		-2.4206		-1.4210		H		1		UNL1		0.1267
40		H		4.4905		-4.3155		-1.0736		H		1		UNL1		0.1256
41		H		2.3411		-3.9502		0.1354		H		1		UNL1		0.1190
42		H		1.7331		-1.7172		0.9554		H		1		UNL1		0.1672
43		H		-1.5565		-2.1743		1.4237		H		1		UNL1		0.3420
44		H		-2.7568		-2.2255		-1.0413		H		1		UNL1		0.1652
45		H		-3.3227		-3.0893		0.3831		H		1		UNL1		0.1770
46		H		-4.7106		-1.5335		-2.1521		H		1		UNL1		0.1347
47		H		-6.8509		-0.2895		-2.1965		H		1		UNL1		0.1406
48		H		-7.7720		0.6802		-0.0993		H		1		UNL1		0.1389
49		H		-6.5298		0.4030		2.0369		H		1		UNL1		0.1392
50		H		-4.3801		-0.8344		2.0741		H		1		UNL1		0.1424
51		H		-2.7130		0.3512		-0.7994		H		1		UNL1		0.3524
@<TRIPOS>BOND
1		47		22		1
2		46		21		1
3		32		2		1
4		28		27		2
5		39		11		1
6		22		21		ar
7		22		23		ar
8		21		20		ar
9		38		9		1
10		40		12		1
11		44		19		1
12		11		12		ar
13		11		10		ar
14		27		26		ar
15		27		3		ar
16		51		26		1
17		12		13		ar
18		9		10		ar
19		9		8		ar
20		2		33		1
21		2		3		1
22		2		1		1
23		10		15		ar
24		26		17		ar
25		37		8		1
26		3		4		ar
27		8		7		ar
28		48		23		1
29		30		1		1
30		23		24		ar
31		20		19		1
32		20		25		ar
33		13		41		1
34		13		14		ar
35		19		45		1
36		19		18		1
37		29		1		1
38		1		31		1
39		15		14		ar
40		15		6		ar
41		14		42		1
42		17		18		1
43		17		16		ar
44		7		6		ar
45		7		36		1
46		4		16		ar
47		4		5		1
48		6		5		1
49		18		43		1
50		24		25		ar
51		24		49		1
52		25		50		1
53		5		34		1
54		5		35		1

