@<TRIPOS>MOLECULE
WYP-2009-EJMC-1016-5D
 43 45 0 0 0
SMALL
MULLIKEN_CHARGES
****
Gaussian 16 #p B3LYP/6-31G* opt
@<TRIPOS>ATOM
1		C		2.4000		3.7621		1.1092		C.3		1		UNL1		-0.5500
2		C		1.4374		2.9703		0.2635		C.ar		1		UNL1		0.0651
3		C		0.9941		1.7087		0.5731		C.ar		1		UNL1		0.2396
4		C		1.4526		0.9754		1.8192		C.3		1		UNL1		-0.4141
5		C		2.7577		0.2111		1.6290		C.ar		1		UNL1		0.1699
6		C		3.8595		0.4544		2.4567		C.ar		1		UNL1		-0.1867
7		C		5.0478		-0.2599		2.2899		C.ar		1		UNL1		-0.1284
8		C		5.1584		-1.2287		1.2937		C.ar		1		UNL1		-0.1476
9		C		4.0564		-1.4659		0.4734		C.ar		1		UNL1		0.0859
10		BR		4.1827		-2.7960		-0.8990		Br		1		UNL1		-0.1328
11		C		2.8657		-0.7636		0.6268		C.ar		1		UNL1		-0.1957
12		N		0.1154		0.9853		-0.2163		N.ar		1		UNL1		-0.5317
13		C		-0.3084		1.5379		-1.3132		C.ar		1		UNL1		0.3458
14		S		-1.4127		0.7192		-2.4480		S.3		1		UNL1		0.1691
15		C		-1.7600		-0.8645		-1.5529		C.3		1		UNL1		-0.5394
16		C		-3.0608		-0.8603		-0.7925		C.ar		1		UNL1		0.1996
17		C		-3.1374		-0.2813		0.4841		C.ar		1		UNL1		-0.1878
18		C		-4.3337		-0.2792		1.1929		C.ar		1		UNL1		-0.1469
19		C		-5.4583		-0.8636		0.6118		C.ar		1		UNL1		0.2747
20		N		-6.7270		-0.8679		1.3570		N.pl3		1		UNL1		0.3805
21		O		-6.7358		-0.3481		2.4725		O.2		1		UNL1		-0.3931
22		O		-7.7033		-1.3910		0.8203		O.2		1		UNL1		-0.3936
23		C		-5.4156		-1.4472		-0.6519		C.ar		1		UNL1		-0.1450
24		C		-4.2097		-1.4409		-1.3475		C.ar		1		UNL1		-0.1909
25		N		0.0648		2.7874		-1.6967		N.ar		1		UNL1		-0.6524
26		C		0.9550		3.6050		-0.9570		C.ar		1		UNL1		0.5754
27		O		1.2334		4.7194		-1.3773		O.2		1		UNL1		-0.5162
28		H		2.6513		4.6915		0.5944		H		1		UNL1		0.1987
29		H		1.9659		4.0227		2.0835		H		1		UNL1		0.1620
30		H		3.3245		3.2053		1.2981		H		1		UNL1		0.1699
31		H		1.5717		1.6832		2.6453		H		1		UNL1		0.1614
32		H		0.6583		0.2749		2.1010		H		1		UNL1		0.1756
33		H		3.7863		1.2032		3.2412		H		1		UNL1		0.1344
34		H		5.8956		-0.0612		2.9397		H		1		UNL1		0.1440
35		H		6.0764		-1.7889		1.1553		H		1		UNL1		0.1561
36		H		2.0255		-0.9674		-0.0276		H		1		UNL1		0.1622
37		H		-1.7549		-1.6314		-2.3311		H		1		UNL1		0.1998
38		H		-0.9030		-1.0182		-0.8936		H		1		UNL1		0.2372
39		H		-2.2490		0.1685		0.9164		H		1		UNL1		0.1680
40		H		-4.4104		0.1597		2.1800		H		1		UNL1		0.1858
41		H		-6.3111		-1.8934		-1.0663		H		1		UNL1		0.1867
42		H		-4.1617		-1.8959		-2.3334		H		1		UNL1		0.1464
43		H		-0.2895		3.2057		-2.5515		H		1		UNL1		0.3585
@<TRIPOS>BOND
1		43		25		1
2		14		15		1
3		14		13		1
4		42		24		1
5		37		15		1
6		25		13		ar
7		25		26		ar
8		15		38		1
9		15		16		1
10		27		26		2
11		24		16		ar
12		24		23		ar
13		13		12		ar
14		41		23		1
15		26		2		ar
16		10		9		1
17		16		17		ar
18		23		19		ar
19		12		3		ar
20		36		11		1
21		2		3		ar
22		2		1		1
23		9		11		ar
24		9		8		ar
25		17		39		1
26		17		18		ar
27		3		4		1
28		28		1		1
29		19		18		ar
30		19		20		1
31		11		5		ar
32		22		20		2
33		1		30		1
34		1		29		1
35		35		8		1
36		18		40		1
37		8		7		ar
38		20		21		2
39		5		4		1
40		5		6		ar
41		4		32		1
42		4		31		1
43		7		6		ar
44		7		34		1
45		6		33		1

