@<TRIPOS>MOLECULE
WYP-2009-EJMC-1016-5I
 51 53 0 0 0
SMALL
MULLIKEN_CHARGES
****
Gaussian 16 #p B3LYP/6-31G* opt
@<TRIPOS>ATOM
1		C		-9.0418		1.1326		-0.6456		C.3		1		UNL1		-0.2197
2		O		-8.1936		1.0837		0.4930		O.3		1		UNL1		-0.5015
3		C		-7.0796		0.3046		0.4396		C.ar		1		UNL1		0.3809
4		C		-6.2742		0.3108		1.5864		C.ar		1		UNL1		-0.1586
5		C		-5.1143		-0.4548		1.6269		C.ar		1		UNL1		-0.2023
6		C		-4.7218		-1.2430		0.5317		C.ar		1		UNL1		0.1359
7		C		-3.4800		-2.1018		0.6217		C.3		1		UNL1		-0.5462
8		S		-2.2573		-1.9869		-0.7664		S.3		1		UNL1		0.1899
9		C		-1.5024		-0.3888		-0.5632		C.ar		1		UNL1		0.3278
10		N		-0.3668		-0.2157		-1.1729		N.ar		1		UNL1		-0.5146
11		C		0.2455		1.0178		-1.0719		C.ar		1		UNL1		0.2331
12		C		1.5497		1.0877		-1.8493		C.3		1		UNL1		-0.4206
13		C		2.7321		0.5113		-1.0832		C.ar		1		UNL1		0.1597
14		C		3.8140		1.3190		-0.7252		C.ar		1		UNL1		-0.2117
15		C		4.9016		0.7889		-0.0250		C.ar		1		UNL1		-0.0115
16		C		6.0235		1.6986		0.4014		C.3		1		UNL1		0.7899
17		F		7.1799		1.0249		0.5800		F		1		UNL1		-0.2677
18		F		6.2531		2.6693		-0.5114		F		1		UNL1		-0.2701
19		F		5.7426		2.3200		1.5703		F		1		UNL1		-0.2588
20		C		4.9251		-0.5585		0.3265		C.ar		1		UNL1		-0.1971
21		C		3.8467		-1.3703		-0.0303		C.ar		1		UNL1		-0.0131
22		C		3.8873		-2.8434		0.2834		C.3		1		UNL1		0.7910
23		F		4.4234		-3.5533		-0.7366		F		1		UNL1		-0.2592
24		F		4.6353		-3.1031		1.3788		F		1		UNL1		-0.2697
25		F		2.6531		-3.3440		0.5047		F		1		UNL1		-0.2667
26		C		2.7593		-0.8439		-0.7273		C.ar		1		UNL1		-0.1996
27		C		-0.2565		2.0545		-0.3224		C.ar		1		UNL1		0.0434
28		C		0.3736		3.4051		-0.1227		C.3		1		UNL1		-0.5136
29		C		-1.5335		1.8706		0.3542		C.ar		1		UNL1		0.5723
30		O		-2.1254		2.7026		1.0306		O.2		1		UNL1		-0.5174
31		N		-2.1034		0.5889		0.1641		N.ar		1		UNL1		-0.6510
32		C		-5.5347		-1.2355		-0.6074		C.ar		1		UNL1		-0.1710
33		C		-6.7025		-0.4761		-0.6631		C.ar		1		UNL1		-0.1924
34		H		-8.5126		1.5219		-1.5249		H		1		UNL1		0.1575
35		H		-9.8535		1.8126		-0.3826		H		1		UNL1		0.1769
36		H		-9.4581		0.1444		-0.8806		H		1		UNL1		0.1552
37		H		-6.5730		0.9238		2.4303		H		1		UNL1		0.1532
38		H		-4.5072		-0.4448		2.5299		H		1		UNL1		0.1436
39		H		-3.7352		-3.1677		0.5943		H		1		UNL1		0.2082
40		H		-2.9513		-1.9305		1.5642		H		1		UNL1		0.1964
41		H		1.4021		0.5116		-2.7696		H		1		UNL1		0.1843
42		H		1.7730		2.1160		-2.1421		H		1		UNL1		0.1611
43		H		3.8201		2.3696		-0.9995		H		1		UNL1		0.1541
44		H		5.7684		-0.9708		0.8676		H		1		UNL1		0.1733
45		H		1.9192		-1.4790		-0.9881		H		1		UNL1		0.1877
46		H		0.5203		3.5988		0.9463		H		1		UNL1		0.1803
47		H		1.3384		3.5025		-0.6229		H		1		UNL1		0.1438
48		H		-0.2918		4.1973		-0.4860		H		1		UNL1		0.1768
49		H		-3.0348		0.4686		0.5538		H		1		UNL1		0.3673
50		H		-5.2486		-1.8260		-1.4740		H		1		UNL1		0.1487
51		H		-7.3049		-0.4959		-1.5638		H		1		UNL1		0.1416
@<TRIPOS>BOND
1		41		12		1
2		42		12		1
3		12		13		1
4		12		11		1
5		51		33		1
6		34		1		1
7		50		32		1
8		10		11		ar
9		10		9		ar
10		13		26		ar
11		13		14		ar
12		11		27		ar
13		43		14		1
14		45		26		1
15		36		1		1
16		8		9		1
17		8		7		1
18		23		22		1
19		26		21		ar
20		14		15		ar
21		33		32		ar
22		33		3		ar
23		1		35		1
24		1		2		1
25		47		28		1
26		32		6		ar
27		9		31		ar
28		18		16		1
29		48		28		1
30		27		28		1
31		27		29		ar
32		28		46		1
33		21		22		1
34		21		20		ar
35		15		20		ar
36		15		16		1
37		31		29		ar
38		31		49		1
39		22		25		1
40		22		24		1
41		20		44		1
42		29		30		2
43		16		17		1
44		16		19		1
45		3		2		1
46		3		4		ar
47		6		7		1
48		6		5		ar
49		39		7		1
50		7		40		1
51		4		5		ar
52		4		37		1
53		5		38		1

