@<TRIPOS>MOLECULE
WYP-2009-EJMC-1016-5X
 54 57 0 0 0
SMALL
MULLIKEN_CHARGES
****
Gaussian 16 #p B3LYP/6-31G* opt
@<TRIPOS>ATOM
1		C		-4.1251		3.7284		-1.2822		C.3		1		UNL1		-0.4457
2		C		-3.7132		2.9397		-0.0254		C.3		1		UNL1		-0.3322
3		C		-2.2403		2.6096		0.0088		C.ar		1		UNL1		0.0475
4		C		-1.6902		1.4052		-0.3593		C.ar		1		UNL1		0.2043
5		C		-2.5143		0.2445		-0.8720		C.3		1		UNL1		-0.4162
6		C		-3.0062		-0.7408		0.1843		C.ar		1		UNL1		0.1270
7		C		-2.7807		-0.5419		1.5308		C.ar		1		UNL1		-0.1954
8		C		-3.2428		-1.4596		2.5054		C.ar		1		UNL1		-0.1359
9		C		-3.9356		-2.5829		2.1277		C.ar		1		UNL1		-0.1901
10		C		-4.1966		-2.8366		0.7541		C.ar		1		UNL1		0.1371
11		C		-4.9129		-3.9911		0.3407		C.ar		1		UNL1		-0.1941
12		C		-5.1650		-4.2336		-0.9905		C.ar		1		UNL1		-0.1329
13		C		-4.7063		-3.3232		-1.9699		C.ar		1		UNL1		-0.1334
14		C		-4.0078		-2.1934		-1.6014		C.ar		1		UNL1		-0.1969
15		C		-3.7284		-1.9089		-0.2360		C.ar		1		UNL1		0.0723
16		N		-0.3346		1.1315		-0.3036		N.ar		1		UNL1		-0.5076
17		C		0.4590		2.0755		0.1047		C.ar		1		UNL1		0.3239
18		S		2.2157		1.8395		0.2226		S.3		1		UNL1		0.1486
19		C		2.3641		0.0810		-0.3609		C.3		1		UNL1		-0.4898
20		C		3.8117		-0.3277		-0.3393		C.ar		1		UNL1		0.1387
21		C		4.6429		-0.1002		-1.4487		C.ar		1		UNL1		-0.1675
22		C		5.9780		-0.4778		-1.4348		C.ar		1		UNL1		-0.1711
23		C		6.5230		-1.0956		-0.2984		C.ar		1		UNL1		0.3786
24		O		7.8414		-1.4311		-0.3833		O.3		1		UNL1		-0.5041
25		C		8.4507		-2.0568		0.7356		C.3		1		UNL1		-0.2174
26		C		5.7108		-1.3280		0.8180		C.ar		1		UNL1		-0.1943
27		C		4.3694		-0.9409		0.7858		C.ar		1		UNL1		-0.1739
28		N		0.0083		3.3100		0.4706		N.ar		1		UNL1		-0.6502
29		C		-1.3546		3.6805		0.4485		C.ar		1		UNL1		0.5776
30		O		-1.6797		4.8134		0.7860		O.2		1		UNL1		-0.5276
31		H		-3.9317		3.1545		-2.1962		H		1		UNL1		0.1384
32		H		-3.5659		4.6670		-1.3422		H		1		UNL1		0.1714
33		H		-5.1938		3.9697		-1.2529		H		1		UNL1		0.1454
34		H		-4.3079		2.0248		0.0588		H		1		UNL1		0.1471
35		H		-3.9403		3.5500		0.8559		H		1		UNL1		0.1684
36		H		-1.8827		-0.2929		-1.5894		H		1		UNL1		0.1759
37		H		-3.3736		0.6239		-1.4373		H		1		UNL1		0.1680
38		H		-2.2374		0.3383		1.8590		H		1		UNL1		0.1319
39		H		-3.0435		-1.2640		3.5556		H		1		UNL1		0.1300
40		H		-4.2945		-3.2919		2.8699		H		1		UNL1		0.1279
41		H		-5.2615		-4.6849		1.1023		H		1		UNL1		0.1296
42		H		-5.7149		-5.1212		-1.2915		H		1		UNL1		0.1298
43		H		-4.9060		-3.5164		-3.0205		H		1		UNL1		0.1292
44		H		-3.6657		-1.5102		-2.3718		H		1		UNL1		0.1316
45		H		1.9335		0.0376		-1.3629		H		1		UNL1		0.2029
46		H		1.7480		-0.5315		0.2996		H		1		UNL1		0.2063
47		H		4.2339		0.3772		-2.3360		H		1		UNL1		0.1367
48		H		6.6218		-0.3088		-2.2921		H		1		UNL1		0.1433
49		H		7.9740		-3.0177		0.9696		H		1		UNL1		0.1541
50		H		8.4199		-1.4126		1.6242		H		1		UNL1		0.1547
51		H		9.4902		-2.2298		0.4516		H		1		UNL1		0.1730
52		H		6.1050		-1.8065		1.7071		H		1		UNL1		0.1360
53		H		3.7471		-1.1266		1.6581		H		1		UNL1		0.1363
54		H		0.6482		4.0368		0.7754		H		1		UNL1		0.3522
@<TRIPOS>BOND
1		43		13		1
2		44		14		1
3		47		21		1
4		48		22		1
5		31		1		1
6		13		14		ar
7		13		12		ar
8		14		15		ar
9		36		5		1
10		21		22		ar
11		21		20		ar
12		37		5		1
13		22		23		ar
14		45		19		1
15		32		1		1
16		42		12		1
17		1		33		1
18		1		2		1
19		12		11		ar
20		5		4		1
21		5		6		1
22		24		23		1
23		24		25		1
24		19		20		1
25		19		18		1
26		19		46		1
27		4		16		ar
28		4		3		ar
29		20		27		ar
30		16		17		ar
31		23		26		ar
32		15		6		ar
33		15		10		ar
34		2		3		1
35		2		34		1
36		2		35		1
37		3		29		ar
38		17		18		1
39		17		28		ar
40		6		7		ar
41		11		10		ar
42		11		41		1
43		29		28		ar
44		29		30		2
45		51		25		1
46		28		54		1
47		25		49		1
48		25		50		1
49		10		9		ar
50		27		26		ar
51		27		53		1
52		26		52		1
53		7		38		1
54		7		8		ar
55		9		8		ar
56		9		40		1
57		8		39		1

