@<TRIPOS>MOLECULE
WYP-2009-EJMC-1016-5B
 43 45 0 0 0
SMALL
MULLIKEN_CHARGES
****
Gaussian 16 #p B3LYP/6-31G* opt
@<TRIPOS>ATOM
1		C		-3.1930		2.9389		2.2052		C.3		1		UNL1		-0.5485
2		C		-2.2523		2.5468		1.0923		C.ar		1		UNL1		0.0427
3		C		-1.8827		1.2601		0.7864		C.ar		1		UNL1		0.2572
4		C		-2.4214		0.0509		1.5299		C.3		1		UNL1		-0.4249
5		C		-3.1826		-0.8908		0.6136		C.ar		1		UNL1		0.1648
6		C		-4.5119		-0.5938		0.2739		C.ar		1		UNL1		-0.1812
7		C		-5.2562		-1.4095		-0.5744		C.ar		1		UNL1		-0.1193
8		C		-4.6787		-2.5611		-1.1106		C.ar		1		UNL1		-0.1298
9		C		-3.3618		-2.8861		-0.7922		C.ar		1		UNL1		-0.1469
10		C		-2.6345		-2.0531		0.0580		C.ar		1		UNL1		0.0269
11		BR		-0.8315		-2.5840		0.4585		Br		1		UNL1		-0.1273
12		N		-1.0114		0.9309		-0.2352		N.ar		1		UNL1		-0.5128
13		C		-0.5179		1.8962		-0.9444		C.ar		1		UNL1		0.3383
14		S		0.5630		1.6118		-2.3337		S.3		1		UNL1		0.1558
15		C		1.1337		-0.1210		-2.0093		C.3		1		UNL1		-0.5496
16		C		2.4004		-0.1838		-1.1950		C.ar		1		UNL1		0.2018
17		C		2.3448		-0.4354		0.1839		C.ar		1		UNL1		-0.1961
18		C		3.5098		-0.4898		0.9445		C.ar		1		UNL1		-0.1491
19		C		4.7339		-0.2883		0.3112		C.ar		1		UNL1		0.2745
20		N		5.9692		-0.3464		1.1077		N.pl3		1		UNL1		0.3797
21		O		7.0368		-0.1704		0.5205		O.2		1		UNL1		-0.3949
22		O		5.8624		-0.5673		2.3139		O.2		1		UNL1		-0.3942
23		C		4.8236		-0.0404		-1.0578		C.ar		1		UNL1		-0.1472
24		C		3.6506		0.0097		-1.8026		C.ar		1		UNL1		-0.1822
25		N		-0.8185		3.2048		-0.7188		N.ar		1		UNL1		-0.6502
26		C		-1.6982		3.6404		0.2989		C.ar		1		UNL1		0.5770
27		O		-1.9141		4.8378		0.4343		O.2		1		UNL1		-0.5199
28		H		-2.8360		2.5981		3.1841		H		1		UNL1		0.1653
29		H		-3.2750		4.0272		2.2328		H		1		UNL1		0.2008
30		H		-4.1996		2.5282		2.0597		H		1		UNL1		0.1607
31		H		-1.5798		-0.4819		1.9841		H		1		UNL1		0.1850
32		H		-3.0789		0.3733		2.3402		H		1		UNL1		0.1664
33		H		-4.9648		0.3028		0.6902		H		1		UNL1		0.1414
34		H		-6.2830		-1.1482		-0.8133		H		1		UNL1		0.1410
35		H		-5.2471		-3.2089		-1.7718		H		1		UNL1		0.1433
36		H		-2.8971		-3.7791		-1.1955		H		1		UNL1		0.1558
37		H		0.3072		-0.6406		-1.5199		H		1		UNL1		0.2535
38		H		1.2784		-0.5427		-3.0077		H		1		UNL1		0.1977
39		H		1.3826		-0.6074		0.6543		H		1		UNL1		0.1730
40		H		3.4855		-0.6874		2.0091		H		1		UNL1		0.1849
41		H		5.7956		0.1046		-1.5126		H		1		UNL1		0.1848
42		H		3.7067		0.2028		-2.8709		H		1		UNL1		0.1446
43		H		-0.3922		3.9456		-1.2666		H		1		UNL1		0.3571
@<TRIPOS>BOND
1		38		15		1
2		42		24		1
3		14		15		1
4		14		13		1
5		15		37		1
6		15		16		1
7		24		16		ar
8		24		23		ar
9		35		8		1
10		41		23		1
11		43		25		1
12		36		9		1
13		16		17		ar
14		8		9		ar
15		8		7		ar
16		23		19		ar
17		13		25		ar
18		13		12		ar
19		34		7		1
20		9		10		ar
21		25		26		ar
22		7		6		ar
23		12		3		ar
24		10		11		1
25		10		5		ar
26		17		39		1
27		17		18		ar
28		6		5		ar
29		6		33		1
30		26		27		2
31		26		2		ar
32		19		18		ar
33		19		20		1
34		21		20		2
35		5		4		1
36		3		2		ar
37		3		4		1
38		18		40		1
39		2		1		1
40		20		22		2
41		4		31		1
42		4		32		1
43		30		1		1
44		1		29		1
45		1		28		1

