@<TRIPOS>MOLECULE
WYP-2008-CB-168-6P
 51 53 0 0 0
SMALL
MULLIKEN_CHARGES
****
Gaussian 16 #p B3LYP/6-31G* opt
@<TRIPOS>ATOM
1		C		7.6720		1.0423		0.4374		C.3		1		UNL1		-0.4424
2		C		6.9862		-0.1133		-0.2985		C.3		1		UNL1		-0.2495
3		C		6.6332		-1.2868		0.6277		C.3		1		UNL1		-0.2621
4		C		5.9475		-2.4714		-0.0729		C.3		1		UNL1		-0.2963
5		C		4.5265		-2.2701		-0.5390		C.2		1		UNL1		-0.1641
6		C		3.7128		-1.2639		-0.1941		C.2		1		UNL1		0.0982
7		N		2.3712		-1.1780		-0.5770		N.3		1		UNL1		-0.6725
8		C		1.5189		-0.1110		-0.4639		C.ar		1		UNL1		0.7722
9		N		0.2547		-0.3012		-0.7568		N.ar		1		UNL1		-0.5699
10		C		-0.5898		0.7745		-0.6396		C.ar		1		UNL1		0.2201
11		C		-2.0197		0.4725		-1.0303		C.3		1		UNL1		-0.4165
12		C		-2.9305		-0.0098		0.0953		C.ar		1		UNL1		0.1261
13		C		-2.4837		-0.1343		1.3947		C.ar		1		UNL1		-0.1945
14		C		-3.3347		-0.5827		2.4338		C.ar		1		UNL1		-0.1355
15		C		-4.6416		-0.9092		2.1690		C.ar		1		UNL1		-0.1907
16		C		-5.1540		-0.8007		0.8482		C.ar		1		UNL1		0.1373
17		C		-6.5024		-1.1329		0.5505		C.ar		1		UNL1		-0.1942
18		C		-6.9957		-1.0273		-0.7300		C.ar		1		UNL1		-0.1331
19		C		-6.1523		-0.5814		-1.7734		C.ar		1		UNL1		-0.1337
20		C		-4.8389		-0.2510		-1.5175		C.ar		1		UNL1		-0.1965
21		C		-4.2936		-0.3467		-0.2072		C.ar		1		UNL1		0.0717
22		C		-0.2036		2.0262		-0.2097		C.ar		1		UNL1		0.0517
23		C		-1.1380		3.1999		-0.0623		C.3		1		UNL1		-0.5394
24		C		1.1955		2.2517		0.0993		C.ar		1		UNL1		0.5662
25		O		1.7284		3.2957		0.4610		O.2		1		UNL1		-0.5350
26		N		2.0048		1.0964		-0.0611		N.ar		1		UNL1		-0.7007
27		H		7.0253		1.4567		1.2209		H		1		UNL1		0.1421
28		H		8.6002		0.7107		0.9188		H		1		UNL1		0.1442
29		H		7.9255		1.8580		-0.2487		H		1		UNL1		0.1484
30		H		7.6444		-0.4805		-1.0984		H		1		UNL1		0.1352
31		H		6.0827		0.2541		-0.8015		H		1		UNL1		0.1321
32		H		7.5577		-1.6562		1.0911		H		1		UNL1		0.1370
33		H		6.0101		-0.9323		1.4618		H		1		UNL1		0.1321
34		H		5.9683		-3.3434		0.5996		H		1		UNL1		0.1507
35		H		6.5561		-2.7699		-0.9398		H		1		UNL1		0.1452
36		H		4.1293		-3.0527		-1.1875		H		1		UNL1		0.1235
37		H		4.0527		-0.4647		0.4567		H		1		UNL1		0.1456
38		H		1.9172		-1.9986		-0.9587		H		1		UNL1		0.3521
39		H		-2.4648		1.3631		-1.4909		H		1		UNL1		0.1641
40		H		-1.9804		-0.2988		-1.8088		H		1		UNL1		0.1750
41		H		-1.4549		0.1160		1.6328		H		1		UNL1		0.1329
42		H		-2.9417		-0.6653		3.4436		H		1		UNL1		0.1288
43		H		-5.3015		-1.2538		2.9616		H		1		UNL1		0.1268
44		H		-7.1425		-1.4752		1.3606		H		1		UNL1		0.1286
45		H		-8.0298		-1.2850		-0.9422		H		1		UNL1		0.1287
46		H		-6.5433		-0.4992		-2.7841		H		1		UNL1		0.1281
47		H		-4.2109		0.0874		-2.3350		H		1		UNL1		0.1319
48		H		-1.4154		3.6287		-1.0352		H		1		UNL1		0.1573
49		H		-2.0634		2.9214		0.4525		H		1		UNL1		0.1620
50		H		-0.6414		3.9867		0.5103		H		1		UNL1		0.1875
51		H		2.9927		1.2586		0.0915		H		1		UNL1		0.3430
@<TRIPOS>BOND
1		46		19		1
2		47		20		1
3		40		11		1
4		19		20		ar
5		19		18		ar
6		20		21		ar
7		39		11		1
8		36		5		1
9		30		2		1
10		48		23		1
11		11		10		1
12		11		12		1
13		38		7		1
14		45		18		1
15		35		4		1
16		31		2		1
17		9		10		ar
18		9		8		ar
19		18		17		ar
20		10		22		ar
21		7		8		1
22		7		6		1
23		5		6		2
24		5		4		1
25		8		26		ar
26		2		1		1
27		2		3		1
28		29		1		1
29		22		23		1
30		22		24		ar
31		21		12		ar
32		21		16		ar
33		6		37		1
34		4		34		1
35		4		3		1
36		23		49		1
37		23		50		1
38		26		51		1
39		26		24		ar
40		12		13		ar
41		24		25		2
42		1		28		1
43		1		27		1
44		17		16		ar
45		17		44		1
46		3		32		1
47		3		33		1
48		16		15		ar
49		13		41		1
50		13		14		ar
51		15		14		ar
52		15		43		1
53		14		42		1

