@<TRIPOS>MOLECULE
WYP-2008-BMC-3887-5C
 48 50 0 0 0
SMALL
MULLIKEN_CHARGES
****
Gaussian 16 #p B3LYP/6-31G* opt
@<TRIPOS>ATOM
1		C		-8.8134		-1.6997		-0.6660		C.3		1		UNL1		-0.2240
2		O		-8.2471		-0.3987		-0.5487		O.3		1		UNL1		-0.4939
3		C		-6.9421		-0.2824		-0.2091		C.ar		1		UNL1		0.3924
4		C		-6.0857		-1.3632		0.0474		C.ar		1		UNL1		-0.1995
5		C		-4.7591		-1.1209		0.3952		C.ar		1		UNL1		-0.1847
6		C		-4.2562		0.1857		0.4886		C.ar		1		UNL1		0.0832
7		C		-2.8574		0.5041		0.8407		C.2		1		UNL1		0.4277
8		O		-2.4484		1.6659		0.8367		O.2		1		UNL1		-0.4772
9		C		-1.8702		-0.6011		1.2074		C.3		1		UNL1		-0.5655
10		S		-0.8256		-1.1315		-0.2199		S.3		1		UNL1		0.1960
11		C		0.5030		0.0680		-0.2484		C.ar		1		UNL1		0.3181
12		N		1.5878		-0.3394		-0.8358		N.ar		1		UNL1		-0.5090
13		C		2.6356		0.5553		-0.9249		C.ar		1		UNL1		0.2297
14		C		3.8516		0.0067		-1.6473		C.3		1		UNL1		-0.4133
15		C		4.8249		-0.7170		-0.7241		C.ar		1		UNL1		0.1700
16		C		4.4231		-1.8539		-0.0109		C.ar		1		UNL1		-0.1854
17		C		5.3304		-2.5092		0.8227		C.ar		1		UNL1		-0.1338
18		C		6.6402		-2.0535		0.9616		C.ar		1		UNL1		-0.1611
19		C		7.0438		-0.9212		0.2500		C.ar		1		UNL1		0.3593
20		O		8.3383		-0.5030		0.4071		O.3		1		UNL1		-0.6456
21		C		6.1397		-0.2581		-0.5875		C.ar		1		UNL1		-0.2655
22		C		2.6044		1.8171		-0.3827		C.ar		1		UNL1		0.0662
23		C		3.7538		2.7897		-0.4332		C.3		1		UNL1		-0.5487
24		C		1.3850		2.2727		0.2735		C.ar		1		UNL1		0.5659
25		O		1.1872		3.3708		0.7792		O.2		1		UNL1		-0.5235
26		N		0.3476		1.3054		0.2813		N.ar		1		UNL1		-0.6636
27		C		-5.1326		1.2599		0.2189		C.ar		1		UNL1		-0.1565
28		C		-6.4518		1.0348		-0.1193		C.ar		1		UNL1		-0.1708
29		H		-8.3102		-2.2849		-1.4454		H		1		UNL1		0.1626
30		H		-9.8562		-1.5438		-0.9453		H		1		UNL1		0.1819
31		H		-8.7678		-2.2420		0.2865		H		1		UNL1		0.1612
32		H		-6.4397		-2.3848		-0.0217		H		1		UNL1		0.1446
33		H		-4.1184		-1.9771		0.5789		H		1		UNL1		0.1422
34		H		-2.3514		-1.5160		1.5562		H		1		UNL1		0.2005
35		H		-1.2201		-0.2373		2.0070		H		1		UNL1		0.2201
36		H		4.3750		0.8166		-2.1644		H		1		UNL1		0.1505
37		H		3.4875		-0.6909		-2.4099		H		1		UNL1		0.1752
38		H		3.4041		-2.2142		-0.1108		H		1		UNL1		0.1492
39		H		5.0139		-3.3918		1.3727		H		1		UNL1		0.1287
40		H		7.3547		-2.5557		1.6060		H		1		UNL1		0.1360
41		H		8.4793		0.2892		-0.1341		H		1		UNL1		0.4063
42		H		6.4675		0.6193		-1.1445		H		1		UNL1		0.1118
43		H		3.4929		3.6827		0.1384		H		1		UNL1		0.1942
44		H		3.9811		3.1013		-1.4614		H		1		UNL1		0.1561
45		H		4.6671		2.3562		-0.0103		H		1		UNL1		0.1632
46		H		-0.5632		1.6276		0.6309		H		1		UNL1		0.3969
47		H		-4.7432		2.2701		0.2851		H		1		UNL1		0.1767
48		H		-7.1329		1.8545		-0.3244		H		1		UNL1		0.1553
@<TRIPOS>BOND
1		37		14		1
2		36		14		1
3		14		13		1
4		14		15		1
5		44		23		1
6		29		1		1
7		42		21		1
8		30		1		1
9		13		12		ar
10		13		22		ar
11		12		11		ar
12		15		21		ar
13		15		16		ar
14		1		2		1
15		1		31		1
16		21		19		ar
17		2		3		1
18		23		22		1
19		23		45		1
20		23		43		1
21		22		24		ar
22		48		28		1
23		11		10		1
24		11		26		ar
25		10		9		1
26		3		28		ar
27		3		4		ar
28		41		20		1
29		28		27		ar
30		38		16		1
31		32		4		1
32		16		17		ar
33		4		5		ar
34		27		47		1
35		27		6		ar
36		19		20		1
37		19		18		ar
38		24		26		ar
39		24		25		2
40		26		46		1
41		5		6		ar
42		5		33		1
43		6		7		1
44		17		18		ar
45		17		39		1
46		8		7		2
47		7		9		1
48		18		40		1
49		9		34		1
50		9		35		1

