@<TRIPOS>MOLECULE
WYP-2008-CB-168-6C
 51 54 0 0 0
SMALL
MULLIKEN_CHARGES
****
Gaussian 16 #p B3LYP/6-31G* opt
@<TRIPOS>ATOM
1		C		-1.4418		-3.5956		0.5447		C.3		1		UNL1		-0.4485
2		C		-0.9714		-2.8903		-0.7412		C.3		1		UNL1		-0.3254
3		C		-0.2130		-1.6101		-0.4775		C.ar		1		UNL1		0.0401
4		C		-0.7065		-0.3284		-0.6054		C.ar		1		UNL1		0.2100
5		C		-2.1120		-0.0203		-1.0761		C.3		1		UNL1		-0.4187
6		C		-3.1570		0.1660		0.0199		C.ar		1		UNL1		0.1287
7		C		-2.8432		0.0486		1.3585		C.ar		1		UNL1		-0.1924
8		C		-3.8195		0.2217		2.3695		C.ar		1		UNL1		-0.1370
9		C		-5.1187		0.5159		2.0377		C.ar		1		UNL1		-0.1908
10		C		-5.4964		0.6524		0.6748		C.ar		1		UNL1		0.1378
11		C		-6.8337		0.9588		0.3075		C.ar		1		UNL1		-0.1943
12		C		-7.1964		1.0931		-1.0133		C.ar		1		UNL1		-0.1331
13		C		-6.2271		0.9254		-2.0287		C.ar		1		UNL1		-0.1338
14		C		-4.9209		0.6266		-1.7055		C.ar		1		UNL1		-0.1966
15		C		-4.5085		0.4786		-0.3520		C.ar		1		UNL1		0.0710
16		N		0.0169		0.8072		-0.3180		N.ar		1		UNL1		-0.5619
17		C		1.2586		0.6579		0.0697		C.ar		1		UNL1		0.7396
18		N		2.0097		1.7815		0.3253		N.pl3		1		UNL1		-0.6238
19		C		3.1743		1.7944		1.2073		C.3		1		UNL1		-0.2322
20		C		4.4402		1.2288		0.5788		C.ar		1		UNL1		0.1196
21		C		4.7740		1.5121		-0.7531		C.ar		1		UNL1		-0.1609
22		C		5.9585		1.0359		-1.3099		C.ar		1		UNL1		-0.1931
23		C		6.8105		0.2709		-0.5187		C.ar		1		UNL1		0.3845
24		F		7.9570		-0.1927		-1.0535		F		1		UNL1		-0.2917
25		C		6.5097		-0.0344		0.8025		C.ar		1		UNL1		-0.1897
26		C		5.3168		0.4488		1.3431		C.ar		1		UNL1		-0.1883
27		N		1.8431		-0.5643		0.2095		N.ar		1		UNL1		-0.6926
28		C		1.1650		-1.7803		-0.0467		C.ar		1		UNL1		0.5736
29		O		1.7696		-2.8386		0.0997		O.2		1		UNL1		-0.5360
30		H		-2.1358		-2.9647		1.1105		H		1		UNL1		0.1470
31		H		-0.5849		-3.8329		1.1825		H		1		UNL1		0.1666
32		H		-1.9548		-4.5338		0.3028		H		1		UNL1		0.1392
33		H		-1.8342		-2.7016		-1.3876		H		1		UNL1		0.1355
34		H		-0.3053		-3.5706		-1.2847		H		1		UNL1		0.1621
35		H		-2.0487		0.9064		-1.6599		H		1		UNL1		0.1744
36		H		-2.4545		-0.7996		-1.7653		H		1		UNL1		0.1650
37		H		-1.8238		-0.1809		1.6503		H		1		UNL1		0.1322
38		H		-3.5290		0.1180		3.4117		H		1		UNL1		0.1272
39		H		-5.8745		0.6488		2.8081		H		1		UNL1		0.1263
40		H		-7.5713		1.0866		1.0967		H		1		UNL1		0.1283
41		H		-8.2237		1.3278		-1.2787		H		1		UNL1		0.1285
42		H		-6.5148		1.0332		-3.0712		H		1		UNL1		0.1280
43		H		-4.1949		0.5049		-2.5025		H		1		UNL1		0.1321
44		H		1.4279		2.6094		0.3208		H		1		UNL1		0.3447
45		H		2.9663		1.2629		2.1485		H		1		UNL1		0.1636
46		H		3.3374		2.8446		1.4748		H		1		UNL1		0.1784
47		H		4.0910		2.1001		-1.3592		H		1		UNL1		0.1522
48		H		6.2278		1.2439		-2.3402		H		1		UNL1		0.1557
49		H		7.1935		-0.6440		1.3835		H		1		UNL1		0.1566
50		H		5.0694		0.2136		2.3760		H		1		UNL1		0.1426
51		H		2.8283		-0.6601		0.4344		H		1		UNL1		0.3497
@<TRIPOS>BOND
1		42		13		1
2		43		14		1
3		48		22		1
4		13		14		ar
5		13		12		ar
6		36		5		1
7		14		15		ar
8		35		5		1
9		33		2		1
10		47		21		1
11		22		21		ar
12		22		23		ar
13		34		2		1
14		41		12		1
15		5		4		1
16		5		6		1
17		24		23		1
18		12		11		ar
19		21		20		ar
20		2		3		1
21		2		1		1
22		4		3		ar
23		4		16		ar
24		23		25		ar
25		3		28		ar
26		15		6		ar
27		15		10		ar
28		16		17		ar
29		28		29		2
30		28		27		ar
31		6		7		ar
32		17		27		ar
33		17		18		1
34		27		51		1
35		32		1		1
36		11		10		ar
37		11		40		1
38		44		18		1
39		18		19		1
40		1		30		1
41		1		31		1
42		20		19		1
43		20		26		ar
44		10		9		ar
45		25		26		ar
46		25		49		1
47		19		46		1
48		19		45		1
49		26		50		1
50		7		37		1
51		7		8		ar
52		9		8		ar
53		9		39		1
54		8		38		1

