@<TRIPOS>MOLECULE
WYP-2009-EJMC-1016-5H
 49 51 0 0 0
SMALL
MULLIKEN_CHARGES
****
Gaussian 16 #p B3LYP/6-31G* opt
@<TRIPOS>ATOM
1		C		-4.1921		-2.0582		2.9130		C.3		1		UNL1		-0.5307
2		C		-4.2185		-1.7992		1.4239		C.ar		1		UNL1		0.1908
3		C		-5.3666		-2.0963		0.6729		C.ar		1		UNL1		-0.2377
4		C		-5.4224		-1.8628		-0.7013		C.ar		1		UNL1		0.1880
5		C		-6.6659		-2.1801		-1.5000		C.3		1		UNL1		-0.5309
6		C		-4.2934		-1.3169		-1.3325		C.ar		1		UNL1		-0.2534
7		C		-3.1370		-1.0121		-0.6139		C.ar		1		UNL1		0.1866
8		C		-1.9120		-0.4439		-1.3227		C.3		1		UNL1		-0.4146
9		C		-1.4213		0.8662		-0.7376		C.ar		1		UNL1		0.2412
10		N		-0.3853		0.7297		0.1728		N.ar		1		UNL1		-0.5303
11		C		0.0783		1.8070		0.7299		C.ar		1		UNL1		0.3443
12		S		1.3850		1.7833		1.9448		S.3		1		UNL1		0.1633
13		C		1.8379		-0.0121		1.9622		C.3		1		UNL1		-0.5380
14		C		3.0360		-0.3455		1.1116		C.ar		1		UNL1		0.1994
15		C		2.8928		-0.5544		-0.2693		C.ar		1		UNL1		-0.1885
16		C		3.9941		-0.8671		-1.0587		C.ar		1		UNL1		-0.1471
17		C		5.2458		-0.9697		-0.4531		C.ar		1		UNL1		0.2746
18		N		6.4153		-1.3036		-1.2811		N.pl3		1		UNL1		0.3802
19		O		7.5075		-1.3883		-0.7199		O.2		1		UNL1		-0.3943
20		O		6.2315		-1.4784		-2.4854		O.2		1		UNL1		-0.3933
21		C		5.4216		-0.7695		0.9138		C.ar		1		UNL1		-0.1453
22		C		4.3084		-0.4576		1.6893		C.ar		1		UNL1		-0.1906
23		N		-0.4018		3.0463		0.4461		N.ar		1		UNL1		-0.6523
24		C		-1.4545		3.2900		-0.4714		C.ar		1		UNL1		0.5732
25		O		-1.8200		4.4410		-0.6689		O.2		1		UNL1		-0.5192
26		C		-1.9770		2.0742		-1.0809		C.ar		1		UNL1		0.0648
27		C		-3.1049		2.2349		-2.0658		C.3		1		UNL1		-0.5491
28		C		-3.1123		-1.2592		0.7671		C.ar		1		UNL1		-0.2432
29		H		-3.2036		-1.8555		3.3368		H		1		UNL1		0.1528
30		H		-4.4495		-3.0992		3.1435		H		1		UNL1		0.1613
31		H		-4.9163		-1.4248		3.4411		H		1		UNL1		0.1646
32		H		-6.2343		-2.5209		1.1750		H		1		UNL1		0.1151
33		H		-7.1193		-1.2697		-1.9124		H		1		UNL1		0.1641
34		H		-7.4214		-2.6763		-0.8828		H		1		UNL1		0.1559
35		H		-6.4405		-2.8382		-2.3481		H		1		UNL1		0.1615
36		H		-4.3193		-1.1361		-2.4059		H		1		UNL1		0.1166
37		H		-1.0857		-1.1613		-1.2584		H		1		UNL1		0.1691
38		H		-2.1443		-0.3095		-2.3842		H		1		UNL1		0.1576
39		H		0.9414		-0.5387		1.6273		H		1		UNL1		0.2364
40		H		2.0193		-0.2437		3.0145		H		1		UNL1		0.1967
41		H		1.9085		-0.4683		-0.7190		H		1		UNL1		0.1706
42		H		3.9016		-1.0349		-2.1246		H		1		UNL1		0.1859
43		H		6.4104		-0.8614		1.3456		H		1		UNL1		0.1860
44		H		4.4312		-0.3019		2.7580		H		1		UNL1		0.1451
45		H		-0.0132		3.8771		0.8817		H		1		UNL1		0.3567
46		H		-3.4346		3.2758		-2.0709		H		1		UNL1		0.1950
47		H		-2.7916		1.9761		-3.0860		H		1		UNL1		0.1606
48		H		-3.9561		1.5950		-1.8106		H		1		UNL1		0.1727
49		H		-2.2137		-1.0255		1.3330		H		1		UNL1		0.1276
@<TRIPOS>BOND
1		47		27		1
2		20		18		2
3		36		6		1
4		38		8		1
5		35		5		1
6		42		16		1
7		46		27		1
8		27		48		1
9		27		26		1
10		33		5		1
11		5		34		1
12		5		4		1
13		6		4		ar
14		6		7		ar
15		8		37		1
16		8		9		1
17		8		7		1
18		18		19		2
19		18		17		1
20		26		9		ar
21		26		24		ar
22		16		17		ar
23		16		15		ar
24		9		10		ar
25		41		15		1
26		4		3		ar
27		25		24		2
28		7		28		ar
29		24		23		ar
30		17		21		ar
31		15		14		ar
32		10		11		ar
33		23		11		ar
34		23		45		1
35		3		32		1
36		3		2		ar
37		11		12		1
38		28		49		1
39		28		2		ar
40		21		43		1
41		21		22		ar
42		14		22		ar
43		14		13		1
44		2		1		1
45		39		13		1
46		22		44		1
47		12		13		1
48		13		40		1
49		1		30		1
50		1		29		1
51		1		31		1

