@<TRIPOS>MOLECULE
WYP-2008-CB-168-6N
 44 46 0 0 0
SMALL
MULLIKEN_CHARGES
****
Gaussian 16 #p B3LYP/6-31G* opt
@<TRIPOS>ATOM
1		C		5.9344		-2.7205		-0.8837		C.3		1		UNL1		-0.4414
2		C		5.5511		-2.3358		0.5490		C.3		1		UNL1		-0.2888
3		C		4.7938		-1.0082		0.6564		C.3		1		UNL1		-0.1239
4		N		3.5067		-1.0880		-0.0227		N.pl3		1		UNL1		-0.6339
5		C		2.6083		-0.0631		-0.1298		C.ar		1		UNL1		0.7641
6		N		1.3722		-0.3381		-0.4787		N.ar		1		UNL1		-0.5686
7		C		0.5081		0.7176		-0.6221		C.ar		1		UNL1		0.2185
8		C		-0.8857		0.3103		-1.0478		C.3		1		UNL1		-0.4168
9		C		-1.8719		0.0285		0.0822		C.ar		1		UNL1		0.1266
10		C		-1.5234		0.1723		1.4094		C.ar		1		UNL1		-0.1949
11		C		-2.4440		-0.0904		2.4529		C.ar		1		UNL1		-0.1355
12		C		-3.7219		-0.5009		2.1648		C.ar		1		UNL1		-0.1911
13		C		-4.1342		-0.6663		0.8151		C.ar		1		UNL1		0.1375
14		C		-5.4511		-1.0895		0.4928		C.ar		1		UNL1		-0.1944
15		C		-5.8476		-1.2488		-0.8156		C.ar		1		UNL1		-0.1331
16		C		-4.9343		-0.9894		-1.8631		C.ar		1		UNL1		-0.1338
17		C		-3.6490		-0.5773		-1.5837		C.ar		1		UNL1		-0.1962
18		C		-3.2031		-0.4009		-0.2445		C.ar		1		UNL1		0.0711
19		C		0.8427		2.0389		-0.4104		C.ar		1		UNL1		0.0518
20		C		-0.1170		3.1925		-0.5574		C.3		1		UNL1		-0.5406
21		C		2.2036		2.3544		-0.0240		C.ar		1		UNL1		0.5642
22		O		2.6885		3.4596		0.2004		O.2		1		UNL1		-0.5392
23		N		3.0340		1.2109		0.1022		N.ar		1		UNL1		-0.6990
24		H		6.5841		-1.9602		-1.3332		H		1		UNL1		0.1509
25		H		6.4741		-3.6732		-0.8987		H		1		UNL1		0.1544
26		H		5.0531		-2.8224		-1.5254		H		1		UNL1		0.1600
27		H		6.4533		-2.2529		1.1670		H		1		UNL1		0.1544
28		H		4.9429		-3.1296		1.0058		H		1		UNL1		0.1462
29		H		4.6686		-0.7363		1.7169		H		1		UNL1		0.1547
30		H		5.3983		-0.2202		0.1855		H		1		UNL1		0.1510
31		H		3.0513		-1.9918		-0.0572		H		1		UNL1		0.3421
32		H		-1.3062		1.0851		-1.7008		H		1		UNL1		0.1635
33		H		-0.7798		-0.5940		-1.6588		H		1		UNL1		0.1749
34		H		-0.5198		0.4958		1.6661		H		1		UNL1		0.1325
35		H		-2.1277		0.0372		3.4848		H		1		UNL1		0.1276
36		H		-4.4349		-0.7040		2.9604		H		1		UNL1		0.1261
37		H		-6.1457		-1.2865		1.3064		H		1		UNL1		0.1281
38		H		-6.8588		-1.5729		-1.0464		H		1		UNL1		0.1282
39		H		-5.2489		-1.1162		-2.8957		H		1		UNL1		0.1277
40		H		-2.9659		-0.3855		-2.4045		H		1		UNL1		0.1323
41		H		-1.0682		3.0000		-0.0496		H		1		UNL1		0.1606
42		H		0.3326		4.0910		-0.1283		H		1		UNL1		0.1871
43		H		-0.3420		3.4085		-1.6109		H		1		UNL1		0.1552
44		H		3.9904		1.4175		0.3645		H		1		UNL1		0.3400
@<TRIPOS>BOND
1		39		16		1
2		40		17		1
3		16		17		ar
4		16		15		ar
5		32		8		1
6		33		8		1
7		43		20		1
8		17		18		ar
9		26		1		1
10		24		1		1
11		8		7		1
12		8		9		1
13		38		15		1
14		25		1		1
15		1		2		1
16		15		14		ar
17		7		6		ar
18		7		19		ar
19		20		19		1
20		20		42		1
21		20		41		1
22		6		5		ar
23		19		21		ar
24		18		9		ar
25		18		13		ar
26		5		4		1
27		5		23		ar
28		31		4		1
29		21		23		ar
30		21		22		2
31		4		3		1
32		9		10		ar
33		23		44		1
34		30		3		1
35		14		13		ar
36		14		37		1
37		2		3		1
38		2		28		1
39		2		27		1
40		3		29		1
41		13		12		ar
42		10		34		1
43		10		11		ar
44		12		11		ar
45		12		36		1
46		11		35		1

