@<TRIPOS>MOLECULE
WYP-2008-CB-168-6G
 53 55 0 0 0
SMALL
MULLIKEN_CHARGES
****
Gaussian 16 #p B3LYP/6-31G* opt
@<TRIPOS>ATOM
1		C		0.5050		3.8296		-1.6959		C.3		1		UNL1		-0.4472
2		C		0.4648		3.3411		-0.2459		C.3		1		UNL1		-0.1502
3		N		1.6597		2.5787		0.1392		N.pl3		1		UNL1		-0.4530
4		C		2.8055		3.3221		0.6607		C.3		1		UNL1		-0.1779
5		C		2.8440		3.4138		2.1920		C.3		1		UNL1		-0.4451
6		C		1.6740		1.2235		-0.0362		C.ar		1		UNL1		0.7925
7		N		0.6597		0.6175		-0.6129		N.ar		1		UNL1		-0.5917
8		C		0.6994		-0.7469		-0.7506		C.ar		1		UNL1		0.2517
9		C		-0.5721		-1.2868		-1.3979		C.3		1		UNL1		-0.4375
10		C		-1.7544		-1.3689		-0.4369		C.ar		1		UNL1		0.1271
11		C		-1.9231		-2.5220		0.3080		C.ar		1		UNL1		-0.2009
12		C		-2.9938		-2.6778		1.2164		C.ar		1		UNL1		-0.1296
13		C		-3.9156		-1.6708		1.3729		C.ar		1		UNL1		-0.1941
14		C		-3.7991		-0.4690		0.6270		C.ar		1		UNL1		0.1387
15		C		-4.7553		0.5736		0.7676		C.ar		1		UNL1		-0.1956
16		C		-4.6512		1.7375		0.0429		C.ar		1		UNL1		-0.1323
17		C		-3.5727		1.9090		-0.8567		C.ar		1		UNL1		-0.1470
18		C		-2.6256		0.9208		-1.0139		C.ar		1		UNL1		-0.1853
19		C		-2.7019		-0.3017		-0.2873		C.ar		1		UNL1		0.0703
20		C		1.7590		-1.5456		-0.3569		C.ar		1		UNL1		0.0301
21		C		1.8354		-3.0603		-0.5072		C.3		1		UNL1		-0.1432
22		C		2.9879		-3.4912		-1.4377		C.3		1		UNL1		-0.4511
23		C		1.9270		-3.7732		0.8581		C.3		1		UNL1		-0.4552
24		C		2.8965		-0.8872		0.2619		C.ar		1		UNL1		0.5755
25		O		3.9334		-1.3991		0.6839		O.2		1		UNL1		-0.5448
26		N		2.7607		0.5142		0.3947		N.ar		1		UNL1		-0.7124
27		H		1.3772		4.4669		-1.8845		H		1		UNL1		0.1426
28		H		-0.3935		4.4150		-1.9234		H		1		UNL1		0.1478
29		H		0.5456		2.9772		-2.3802		H		1		UNL1		0.1731
30		H		-0.4070		2.7053		-0.0868		H		1		UNL1		0.2008
31		H		0.3885		4.1900		0.4436		H		1		UNL1		0.1427
32		H		3.7354		2.8883		0.2727		H		1		UNL1		0.1567
33		H		2.7554		4.3284		0.2324		H		1		UNL1		0.1667
34		H		1.9354		3.8910		2.5740		H		1		UNL1		0.1638
35		H		2.9189		2.4242		2.6554		H		1		UNL1		0.1618
36		H		3.7051		4.0089		2.5165		H		1		UNL1		0.1560
37		H		-0.3985		-2.2796		-1.8159		H		1		UNL1		0.1642
38		H		-0.8092		-0.6333		-2.2418		H		1		UNL1		0.1632
39		H		-1.2149		-3.3380		0.1894		H		1		UNL1		0.1354
40		H		-3.0852		-3.6012		1.7821		H		1		UNL1		0.1293
41		H		-4.7483		-1.7808		2.0636		H		1		UNL1		0.1267
42		H		-5.5788		0.4293		1.4634		H		1		UNL1		0.1272
43		H		-5.3922		2.5241		0.1581		H		1		UNL1		0.1262
44		H		-3.4915		2.8296		-1.4293		H		1		UNL1		0.1230
45		H		-1.7913		1.0849		-1.6846		H		1		UNL1		0.1503
46		H		0.9070		-3.3992		-0.9770		H		1		UNL1		0.1195
47		H		3.9531		-3.1954		-1.0195		H		1		UNL1		0.1807
48		H		2.8848		-3.0343		-2.4291		H		1		UNL1		0.1316
49		H		2.9847		-4.5807		-1.5659		H		1		UNL1		0.1317
50		H		2.8469		-3.4947		1.3779		H		1		UNL1		0.1810
51		H		1.9235		-4.8613		0.7179		H		1		UNL1		0.1305
52		H		1.0758		-3.5100		1.4969		H		1		UNL1		0.1368
53		H		3.5418		0.9476		0.8699		H		1		UNL1		0.3385
@<TRIPOS>BOND
1		48		22		1
2		29		1		1
3		38		9		1
4		28		1		1
5		27		1		1
6		37		9		1
7		1		2		1
8		45		18		1
9		49		22		1
10		22		47		1
11		22		21		1
12		44		17		1
13		9		8		1
14		9		10		1
15		18		17		ar
16		18		19		ar
17		46		21		1
18		17		16		ar
19		8		7		ar
20		8		20		ar
21		7		6		ar
22		21		20		1
23		21		23		1
24		10		19		ar
25		10		11		ar
26		20		24		ar
27		19		14		ar
28		2		30		1
29		2		3		1
30		2		31		1
31		6		3		1
32		6		26		ar
33		16		43		1
34		16		15		ar
35		3		4		1
36		39		11		1
37		33		4		1
38		24		26		ar
39		24		25		2
40		32		4		1
41		11		12		ar
42		26		53		1
43		14		15		ar
44		14		13		ar
45		4		5		1
46		51		23		1
47		15		42		1
48		23		50		1
49		23		52		1
50		12		13		ar
51		12		40		1
52		13		41		1
53		5		36		1
54		5		34		1
55		5		35		1

