@<TRIPOS>MOLECULE
WYP-2009-EJMC-1016-5J
 49 51 0 0 0
SMALL
MULLIKEN_CHARGES
****
Gaussian 16 #p B3LYP/6-31G* opt
@<TRIPOS>ATOM
1		C		-1.6937		3.7346		-0.5381		C.3		1		UNL1		-0.5507
2		C		-0.6178		2.9502		0.1663		C.ar		1		UNL1		0.0655
3		C		-0.2455		1.6722		-0.1669		C.ar		1		UNL1		0.2363
4		C		-0.9084		0.9087		-1.2982		C.3		1		UNL1		-0.4149
5		C		-2.1524		0.1443		-0.8645		C.ar		1		UNL1		0.1633
6		C		-3.3801		0.3595		-1.4956		C.ar		1		UNL1		-0.2154
7		C		-4.5175		-0.3560		-1.1093		C.ar		1		UNL1		-0.0120
8		C		-5.8109		-0.1477		-1.8540		C.3		1		UNL1		0.7931
9		F		-5.9628		1.1402		-2.2346		F		1		UNL1		-0.2683
10		F		-6.8825		-0.4829		-1.1059		F		1		UNL1		-0.2657
11		F		-5.8597		-0.8976		-2.9787		F		1		UNL1		-0.2574
12		C		-4.4464		-1.2947		-0.0832		C.ar		1		UNL1		-0.1955
13		C		-3.2224		-1.5119		0.5522		C.ar		1		UNL1		-0.0121
14		C		-3.1402		-2.4792		1.7050		C.3		1		UNL1		0.7927
15		F		-4.0526		-3.4680		1.5964		F		1		UNL1		-0.2662
16		F		-1.9202		-3.0557		1.7872		F		1		UNL1		-0.2705
17		F		-3.3636		-1.8613		2.8870		F		1		UNL1		-0.2567
18		C		-2.0862		-0.8022		0.1661		C.ar		1		UNL1		-0.1979
19		N		0.7376		0.9555		0.4946		N.ar		1		UNL1		-0.5330
20		C		1.3429		1.5350		1.4887		C.ar		1		UNL1		0.3455
21		S		2.6010		0.7318		2.4611		S.3		1		UNL1		0.1728
22		C		2.8185		-0.8657		1.5489		C.3		1		UNL1		-0.5404
23		C		3.9900		-0.8686		0.6014		C.ar		1		UNL1		0.2003
24		C		3.8661		-0.3222		-0.6857		C.ar		1		UNL1		-0.1881
25		C		4.9425		-0.3252		-1.5661		C.ar		1		UNL1		-0.1464
26		C		6.1497		-0.8820		-1.1463		C.ar		1		UNL1		0.2747
27		N		7.2928		-0.8914		-2.0734		N.pl3		1		UNL1		0.3810
28		O		7.1262		-0.4007		-3.1895		O.2		1		UNL1		-0.3924
29		O		8.3458		-1.3892		-1.6764		O.2		1		UNL1		-0.3925
30		C		6.3053		-1.4332		0.1230		C.ar		1		UNL1		-0.1448
31		C		5.2174		-1.4221		0.9915		C.ar		1		UNL1		-0.1905
32		N		1.0544		2.8035		1.8827		N.ar		1		UNL1		-0.6522
33		C		0.0655		3.6135		1.2714		C.ar		1		UNL1		0.5768
34		O		-0.1267		4.7451		1.6924		O.2		1		UNL1		-0.5125
35		H		-2.6538		3.2062		-0.5297		H		1		UNL1		0.1688
36		H		-1.8244		4.6958		-0.0371		H		1		UNL1		0.2023
37		H		-1.4341		3.9323		-1.5862		H		1		UNL1		0.1644
38		H		-0.1719		0.2019		-1.6971		H		1		UNL1		0.1804
39		H		-1.1741		1.5947		-2.1078		H		1		UNL1		0.1660
40		H		-3.4567		1.0894		-2.2959		H		1		UNL1		0.1590
41		H		-5.3277		-1.8492		0.2165		H		1		UNL1		0.1776
42		H		-1.1408		-0.9846		0.6659		H		1		UNL1		0.1713
43		H		2.9356		-1.6186		2.3319		H		1		UNL1		0.2017
44		H		1.8728		-1.0349		1.0297		H		1		UNL1		0.2356
45		H		2.9167		0.1068		-0.9912		H		1		UNL1		0.1652
46		H		4.8642		0.0887		-2.5638		H		1		UNL1		0.1865
47		H		7.2593		-1.8586		0.4088		H		1		UNL1		0.1878
48		H		5.3244		-1.8519		1.9840		H		1		UNL1		0.1473
49		H		1.5524		3.2435		2.6507		H		1		UNL1		0.3602
@<TRIPOS>BOND
1		28		27		2
2		11		8		1
3		46		25		1
4		40		6		1
5		9		8		1
6		39		4		1
7		27		29		2
8		27		26		1
9		8		7		1
10		8		10		1
11		38		4		1
12		37		1		1
13		25		26		ar
14		25		24		ar
15		6		7		ar
16		6		5		ar
17		4		5		1
18		4		3		1
19		26		30		ar
20		7		12		ar
21		45		24		1
22		5		18		ar
23		24		23		ar
24		1		35		1
25		1		36		1
26		1		2		1
27		3		2		ar
28		3		19		ar
29		12		41		1
30		12		13		ar
31		30		47		1
32		30		31		ar
33		18		13		ar
34		18		42		1
35		2		33		ar
36		19		20		ar
37		13		14		1
38		23		31		ar
39		23		22		1
40		31		48		1
41		44		22		1
42		33		34		2
43		33		32		ar
44		20		32		ar
45		20		21		1
46		22		43		1
47		22		21		1
48		15		14		1
49		14		16		1
50		14		17		1
51		32		49		1

