@<TRIPOS>MOLECULE
WYP-2008-BMC-3887-5P
 52 54 0 0 0
SMALL
MULLIKEN_CHARGES
****
Gaussian 16 #p B3LYP/6-31G* opt
@<TRIPOS>ATOM
1		C		4.8527		-0.1676		1.3769		C.3		1		UNL1		-0.4562
2		C		4.5922		0.5125		0.0198		C.3		1		UNL1		-0.3299
3		C		3.2067		1.1054		-0.0967		C.ar		1		UNL1		0.0308
4		C		2.1551		0.6062		-0.8289		C.ar		1		UNL1		0.2502
5		C		2.2212		-0.6494		-1.6813		C.3		1		UNL1		-0.4233
6		C		1.3443		-1.7835		-1.1697		C.ar		1		UNL1		0.1904
7		C		0.1015		-2.0445		-1.7543		C.ar		1		UNL1		-0.2476
8		C		-0.7142		-3.0872		-1.2973		C.ar		1		UNL1		0.1925
9		C		-2.0736		-3.3298		-1.9111		C.3		1		UNL1		-0.5342
10		C		-0.2530		-3.8789		-0.2400		C.ar		1		UNL1		-0.2424
11		C		0.9903		-3.6483		0.3627		C.ar		1		UNL1		0.1837
12		C		1.4899		-4.5453		1.4726		C.3		1		UNL1		-0.5311
13		C		1.7752		-2.5919		-0.1115		C.ar		1		UNL1		-0.2472
14		N		0.9127		1.2213		-0.8875		N.ar		1		UNL1		-0.5229
15		C		0.7368		2.3216		-0.2280		C.ar		1		UNL1		0.3442
16		S		-0.7927		3.2395		-0.2443		S.3		1		UNL1		0.1752
17		C		-1.8366		2.2138		-1.3605		C.3		1		UNL1		-0.5378
18		C		-3.1800		1.8973		-0.6955		C.2		1		UNL1		0.3996
19		O		-4.1565		2.5531		-1.0255		O.2		1		UNL1		-0.4493
20		C		-3.2743		0.8188		0.3322		C.ar		1		UNL1		0.0761
21		C		-4.5028		0.6601		0.9966		C.ar		1		UNL1		-0.1550
22		C		-4.6624		-0.3362		1.9531		C.ar		1		UNL1		-0.1328
23		C		-3.5976		-1.1923		2.2536		C.ar		1		UNL1		-0.1195
24		C		-2.3751		-1.0458		1.5959		C.ar		1		UNL1		-0.1454
25		C		-2.2096		-0.0424		0.6403		C.ar		1		UNL1		-0.1879
26		N		1.7151		2.8891		0.5291		N.ar		1		UNL1		-0.6553
27		C		3.0098		2.3410		0.6576		C.ar		1		UNL1		0.5847
28		O		3.8398		2.9172		1.3503		O.2		1		UNL1		-0.5213
29		H		5.8755		-0.5590		1.4177		H		1		UNL1		0.1456
30		H		4.1619		-1.0015		1.5459		H		1		UNL1		0.1456
31		H		4.7299		0.5507		2.1919		H		1		UNL1		0.1791
32		H		4.7807		-0.1967		-0.7909		H		1		UNL1		0.1402
33		H		5.3146		1.3288		-0.0973		H		1		UNL1		0.1692
34		H		1.8906		-0.3715		-2.6890		H		1		UNL1		0.1670
35		H		3.2533		-0.9961		-1.7656		H		1		UNL1		0.1619
36		H		-0.2364		-1.4264		-2.5835		H		1		UNL1		0.1190
37		H		-2.8439		-2.7323		-1.4059		H		1		UNL1		0.1744
38		H		-2.3697		-4.3810		-1.8292		H		1		UNL1		0.1558
39		H		-2.0904		-3.0545		-2.9712		H		1		UNL1		0.1562
40		H		-0.8728		-4.6992		0.1185		H		1		UNL1		0.1146
41		H		2.0452		-5.4032		1.0703		H		1		UNL1		0.1676
42		H		0.6629		-4.9467		2.0681		H		1		UNL1		0.1557
43		H		2.1656		-4.0101		2.1482		H		1		UNL1		0.1581
44		H		2.7461		-2.4061		0.3433		H		1		UNL1		0.1285
45		H		-2.0408		2.7990		-2.2579		H		1		UNL1		0.2121
46		H		-1.2375		1.3344		-1.6121		H		1		UNL1		0.2403
47		H		-5.3161		1.3317		0.7424		H		1		UNL1		0.1643
48		H		-5.6143		-0.4499		2.4646		H		1		UNL1		0.1387
49		H		-3.7228		-1.9733		2.9992		H		1		UNL1		0.1377
50		H		-1.5484		-1.7142		1.8170		H		1		UNL1		0.1493
51		H		-1.2512		0.0533		0.1402		H		1		UNL1		0.1743
52		H		1.5602		3.7549		1.0365		H		1		UNL1		0.3563
@<TRIPOS>BOND
1		39		9		1
2		34		5		1
3		36		7		1
4		45		17		1
5		9		38		1
6		9		37		1
7		9		8		1
8		35		5		1
9		7		8		ar
10		7		6		ar
11		5		6		1
12		5		4		1
13		46		17		1
14		17		18		1
15		17		16		1
16		8		10		ar
17		6		13		ar
18		19		18		2
19		14		4		ar
20		14		15		ar
21		4		3		ar
22		32		2		1
23		18		20		1
24		16		15		1
25		10		40		1
26		10		11		ar
27		15		26		ar
28		13		44		1
29		13		11		ar
30		33		2		1
31		3		2		1
32		3		27		ar
33		2		1		1
34		51		25		1
35		20		25		ar
36		20		21		ar
37		11		12		1
38		26		27		ar
39		26		52		1
40		25		24		ar
41		27		28		2
42		47		21		1
43		21		22		ar
44		41		12		1
45		1		29		1
46		1		30		1
47		1		31		1
48		12		42		1
49		12		43		1
50		24		50		1
51		24		23		ar
52		22		23		ar
53		22		48		1
54		23		49		1

