@<TRIPOS>MOLECULE
WYP-2009-EJMC-1016-5O
 48 50 0 0 0
SMALL
MULLIKEN_CHARGES
****
Gaussian 16 #p B3LYP/6-31G* opt
@<TRIPOS>ATOM
1		C		-0.0445		4.3845		-0.5395		C.3		1		UNL1		-0.4456
2		C		-0.6664		3.2156		0.2466		C.3		1		UNL1		-0.3339
3		C		-0.0948		1.8723		-0.1381		C.ar		1		UNL1		0.0481
4		C		-0.6545		0.9943		-1.0366		C.ar		1		UNL1		0.2277
5		C		-1.9521		1.2718		-1.7768		C.3		1		UNL1		-0.4203
6		C		-3.1790		0.6931		-1.0845		C.ar		1		UNL1		0.1740
7		C		-4.2150		1.5265		-0.6486		C.ar		1		UNL1		-0.1907
8		C		-5.3485		1.0075		-0.0193		C.ar		1		UNL1		-0.1472
9		C		-5.4414		-0.3670		0.1750		C.ar		1		UNL1		0.0819
10		BR		-6.9893		-1.0951		1.0363		Br		1		UNL1		-0.1394
11		C		-4.4266		-1.2233		-0.2503		C.ar		1		UNL1		-0.1469
12		C		-3.3028		-0.6887		-0.8778		C.ar		1		UNL1		-0.1776
13		N		-0.1134		-0.2402		-1.3361		N.ar		1		UNL1		-0.5111
14		C		1.0124		-0.5651		-0.7730		C.ar		1		UNL1		0.3260
15		S		1.6816		-2.1509		-1.2287		S.3		1		UNL1		0.1852
16		C		2.8876		-2.5541		0.1222		C.3		1		UNL1		-0.5464
17		C		4.1763		-1.7658		0.1623		C.ar		1		UNL1		0.1436
18		C		4.5788		-1.1297		1.3405		C.ar		1		UNL1		-0.2118
19		C		5.7817		-0.4187		1.4180		C.ar		1		UNL1		-0.1822
20		C		6.6087		-0.3422		0.2938		C.ar		1		UNL1		0.3803
21		O		7.7962		0.3194		0.2447		O.3		1		UNL1		-0.5024
22		C		8.2328		1.0086		1.4083		C.3		1		UNL1		-0.2214
23		C		6.2184		-0.9811		-0.8967		C.ar		1		UNL1		-0.1690
24		C		5.0220		-1.6767		-0.9583		C.ar		1		UNL1		-0.1653
25		N		1.6692		0.2541		0.0893		N.ar		1		UNL1		-0.6524
26		C		1.1766		1.5233		0.4779		C.ar		1		UNL1		0.5745
27		O		1.8294		2.2070		1.2598		O.2		1		UNL1		-0.5310
28		H		-0.4647		5.3409		-0.2077		H		1		UNL1		0.1439
29		H		1.0376		4.4152		-0.3800		H		1		UNL1		0.1713
30		H		-0.2291		4.2871		-1.6160		H		1		UNL1		0.1399
31		H		-1.7538		3.2146		0.1239		H		1		UNL1		0.1398
32		H		-0.4673		3.3700		1.3128		H		1		UNL1		0.1693
33		H		-2.0878		2.3471		-1.9181		H		1		UNL1		0.1582
34		H		-1.8513		0.8231		-2.7717		H		1		UNL1		0.1791
35		H		-4.1461		2.6004		-0.8061		H		1		UNL1		0.1341
36		H		-6.1460		1.6631		0.3133		H		1		UNL1		0.1521
37		H		-4.5157		-2.2932		-0.0952		H		1		UNL1		0.1527
38		H		-2.5064		-1.3488		-1.2085		H		1		UNL1		0.1667
39		H		3.0816		-3.6150		-0.0748		H		1		UNL1		0.2061
40		H		2.3640		-2.5019		1.0814		H		1		UNL1		0.1955
41		H		3.9510		-1.1893		2.2274		H		1		UNL1		0.1434
42		H		6.0511		0.0664		2.3486		H		1		UNL1		0.1452
43		H		8.3848		0.3201		2.2497		H		1		UNL1		0.1551
44		H		7.5205		1.7900		1.7025		H		1		UNL1		0.1621
45		H		9.1856		1.4687		1.1418		H		1		UNL1		0.1757
46		H		6.8728		-0.9091		-1.7597		H		1		UNL1		0.1492
47		H		4.7289		-2.1518		-1.8909		H		1		UNL1		0.1481
48		H		2.5962		0.0264		0.4395		H		1		UNL1		0.3660
@<TRIPOS>BOND
1		34		5		1
2		33		5		1
3		47		24		1
4		5		6		1
5		5		4		1
6		46		23		1
7		30		1		1
8		13		4		ar
9		13		14		ar
10		15		14		1
11		15		16		1
12		38		12		1
13		6		12		ar
14		6		7		ar
15		4		3		ar
16		24		23		ar
17		24		17		ar
18		23		20		ar
19		12		11		ar
20		35		7		1
21		14		25		ar
22		7		8		ar
23		1		29		1
24		1		28		1
25		1		2		1
26		11		37		1
27		11		9		ar
28		3		2		1
29		3		26		ar
30		39		16		1
31		8		9		ar
32		8		36		1
33		25		48		1
34		25		26		ar
35		16		17		1
36		16		40		1
37		31		2		1
38		17		18		ar
39		9		10		1
40		21		20		1
41		21		22		1
42		2		32		1
43		20		19		ar
44		26		27		2
45		45		22		1
46		18		19		ar
47		18		41		1
48		22		44		1
49		22		43		1
50		19		42		1

