@<TRIPOS>MOLECULE
WYP-2009-EJMC-1016-5V
 48 50 0 0 0
SMALL
MULLIKEN_CHARGES
****
Gaussian 16 #p B3LYP/6-31G* opt
@<TRIPOS>ATOM
1		C		4.5221		1.9251		-1.1880		C.3		1		UNL1		-0.4490
2		C		3.7837		2.0350		0.1591		C.3		1		UNL1		-0.3356
3		C		2.2904		1.8437		0.0508		C.ar		1		UNL1		0.0548
4		C		1.5809		0.7334		0.4428		C.ar		1		UNL1		0.2462
5		C		2.1985		-0.5141		1.0742		C.3		1		UNL1		-0.4450
6		C		3.3215		-1.2169		0.3330		C.ar		1		UNL1		0.2025
7		C		3.1366		-1.7698		-0.9491		C.ar		1		UNL1		-0.1338
8		CL		1.5685		-1.6468		-1.7368		Cl		1		UNL1		-0.0021
9		C		4.1400		-2.4459		-1.6402		C.ar		1		UNL1		-0.1201
10		C		5.3878		-2.6081		-1.0448		C.ar		1		UNL1		-0.1254
11		C		5.6162		-2.1084		0.2334		C.ar		1		UNL1		-0.1180
12		C		4.5925		-1.4344		0.8986		C.ar		1		UNL1		-0.1448
13		CL		4.9659		-0.8593		2.5266		Cl		1		UNL1		-0.0115
14		N		0.2011		0.6487		0.3780		N.ar		1		UNL1		-0.5232
15		C		-0.4544		1.6568		-0.1107		C.ar		1		UNL1		0.3271
16		S		-2.2265		1.6523		-0.2389		S.3		1		UNL1		0.1492
17		C		-2.6129		-0.0373		0.4309		C.3		1		UNL1		-0.4905
18		C		-4.1020		-0.2506		0.4110		C.ar		1		UNL1		0.1385
19		C		-4.9014		0.1368		1.4992		C.ar		1		UNL1		-0.1677
20		C		-6.2749		-0.0602		1.4871		C.ar		1		UNL1		-0.1711
21		C		-6.8913		-0.6522		0.3738		C.ar		1		UNL1		0.3785
22		O		-8.2433		-0.8050		0.4587		O.3		1		UNL1		-0.5042
23		C		-8.9248		-1.3938		-0.6383		C.3		1		UNL1		-0.2173
24		C		-6.1114		-1.0423		-0.7214		C.ar		1		UNL1		-0.1943
25		C		-4.7305		-0.8358		-0.6915		C.ar		1		UNL1		-0.1740
26		N		0.1630		2.7859		-0.5591		N.ar		1		UNL1		-0.6501
27		C		1.5595		2.9780		-0.5058		C.ar		1		UNL1		0.5819
28		O		2.0387		4.0343		-0.9034		O.2		1		UNL1		-0.5278
29		H		4.1356		2.6659		-1.8935		H		1		UNL1		0.1733
30		H		4.4049		0.9293		-1.6284		H		1		UNL1		0.1450
31		H		5.5932		2.1118		-1.0498		H		1		UNL1		0.1407
32		H		4.2069		1.3289		0.8771		H		1		UNL1		0.1484
33		H		3.9571		3.0402		0.5618		H		1		UNL1		0.1649
34		H		1.3712		-1.2188		1.2042		H		1		UNL1		0.1939
35		H		2.5487		-0.2556		2.0770		H		1		UNL1		0.1930
36		H		3.9345		-2.8424		-2.6282		H		1		UNL1		0.1613
37		H		6.1788		-3.1318		-1.5730		H		1		UNL1		0.1508
38		H		6.5762		-2.2368		0.7203		H		1		UNL1		0.1615
39		H		-2.0799		-0.7599		-0.1895		H		1		UNL1		0.2052
40		H		-2.1991		-0.0857		1.4398		H		1		UNL1		0.2028
41		H		-4.4371		0.5965		2.3684		H		1		UNL1		0.1370
42		H		-6.8949		0.2328		2.3284		H		1		UNL1		0.1433
43		H		-8.5803		-2.4197		-0.8237		H		1		UNL1		0.1539
44		H		-9.9797		-1.4128		-0.3591		H		1		UNL1		0.1729
45		H		-8.8026		-0.8009		-1.5542		H		1		UNL1		0.1547
46		H		-6.5612		-1.5047		-1.5924		H		1		UNL1		0.1358
47		H		-4.1340		-1.1426		-1.5475		H		1		UNL1		0.1362
48		H		-0.3659		3.5628		-0.9428		H		1		UNL1		0.3520
@<TRIPOS>BOND
1		36		9		1
2		29		1		1
3		8		7		1
4		9		10		ar
5		9		7		ar
6		30		1		1
7		46		24		1
8		37		10		1
9		45		23		1
10		47		25		1
11		1		31		1
12		1		2		1
13		10		11		ar
14		7		6		ar
15		48		26		1
16		28		27		2
17		43		23		1
18		24		25		ar
19		24		21		ar
20		25		18		ar
21		23		44		1
22		23		22		1
23		26		27		ar
24		26		15		ar
25		27		3		ar
26		16		15		1
27		16		17		1
28		39		17		1
29		15		14		ar
30		3		2		1
31		3		4		ar
32		2		33		1
33		2		32		1
34		11		38		1
35		11		12		ar
36		6		12		ar
37		6		5		1
38		21		22		1
39		21		20		ar
40		14		4		ar
41		18		17		1
42		18		19		ar
43		17		40		1
44		4		5		1
45		12		13		1
46		5		34		1
47		5		35		1
48		20		19		ar
49		20		42		1
50		19		41		1

