@<TRIPOS>MOLECULE
WYP-2009-EJMC-1016-5Q
 54 56 0 0 0
SMALL
MULLIKEN_CHARGES
****
Gaussian 16 #p B3LYP/6-31G* opt
@<TRIPOS>ATOM
1		C		4.0353		-2.6066		1.0007		C.3		1		UNL1		-0.4503
2		C		2.7021		-2.3647		1.7341		C.3		1		UNL1		-0.3246
3		C		1.5662		-2.0297		0.7985		C.ar		1		UNL1		0.0459
4		C		1.0416		-0.7767		0.5839		C.ar		1		UNL1		0.2397
5		C		1.5402		0.4717		1.2912		C.3		1		UNL1		-0.4248
6		C		2.7623		1.1069		0.6380		C.ar		1		UNL1		0.1910
7		C		3.9317		1.3136		1.3699		C.ar		1		UNL1		-0.2526
8		C		5.0586		1.9176		0.7903		C.ar		1		UNL1		0.1886
9		C		6.3158		2.1282		1.6030		C.3		1		UNL1		-0.5309
10		C		4.9875		2.3115		-0.5462		C.ar		1		UNL1		-0.2387
11		C		3.8259		2.1161		-1.3096		C.ar		1		UNL1		0.1907
12		C		3.7835		2.5429		-2.7592		C.3		1		UNL1		-0.5305
13		C		2.7218		1.5151		-0.7039		C.ar		1		UNL1		-0.2447
14		N		0.0174		-0.5226		-0.3144		N.ar		1		UNL1		-0.5267
15		C		-0.4788		-1.5217		-0.9802		C.ar		1		UNL1		0.3432
16		S		-1.7617		-1.3354		-2.1998		S.3		1		UNL1		0.1448
17		C		-2.2721		0.4371		-1.9420		C.3		1		UNL1		-0.5349
18		C		-3.4521		0.6213		-1.0297		C.ar		1		UNL1		0.1855
19		C		-3.2811		0.7513		0.3520		C.ar		1		UNL1		-0.1905
20		C		-4.3708		0.9245		1.2075		C.ar		1		UNL1		-0.1934
21		C		-5.6666		0.9702		0.6787		C.ar		1		UNL1		0.3774
22		O		-6.8022		1.1370		1.4158		O.3		1		UNL1		-0.5052
23		C		-6.6776		1.2649		2.8236		C.3		1		UNL1		-0.2165
24		C		-5.8531		0.8432		-0.7059		C.ar		1		UNL1		-0.1698
25		C		-4.7584		0.6711		-1.5418		C.ar		1		UNL1		-0.1808
26		N		-0.0387		-2.7990		-0.8156		N.ar		1		UNL1		-0.6515
27		C		1.0069		-3.1578		0.0650		C.ar		1		UNL1		0.5813
28		O		1.3439		-4.3333		0.1514		O.2		1		UNL1		-0.5266
29		H		3.9316		-3.4274		0.2852		H		1		UNL1		0.1708
30		H		4.8202		-2.8773		1.7165		H		1		UNL1		0.1388
31		H		4.3574		-1.7093		0.4626		H		1		UNL1		0.1558
32		H		2.4338		-3.2781		2.2778		H		1		UNL1		0.1640
33		H		2.8327		-1.5718		2.4768		H		1		UNL1		0.1324
34		H		0.7125		1.1899		1.2888		H		1		UNL1		0.1703
35		H		1.7695		0.2474		2.3372		H		1		UNL1		0.1569
36		H		3.9714		1.0059		2.4136		H		1		UNL1		0.1134
37		H		7.0757		2.6694		1.0306		H		1		UNL1		0.1545
38		H		6.1122		2.7018		2.5156		H		1		UNL1		0.1599
39		H		6.7539		1.1721		1.9166		H		1		UNL1		0.1636
40		H		5.8535		2.7834		-1.0077		H		1		UNL1		0.1128
41		H		4.1081		3.5834		-2.8809		H		1		UNL1		0.1587
42		H		4.4488		1.9253		-3.3765		H		1		UNL1		0.1638
43		H		2.7738		2.4551		-3.1724		H		1		UNL1		0.1545
44		H		1.8124		1.3580		-1.2787		H		1		UNL1		0.1326
45		H		-1.3758		0.9358		-1.5682		H		1		UNL1		0.2265
46		H		-2.4835		0.7968		-2.9524		H		1		UNL1		0.1887
47		H		-2.2781		0.7128		0.7676		H		1		UNL1		0.1517
48		H		-4.1986		1.0250		2.2731		H		1		UNL1		0.1341
49		H		-6.0850		2.1477		3.0981		H		1		UNL1		0.1531
50		H		-7.6939		1.3809		3.2043		H		1		UNL1		0.1717
51		H		-6.2224		0.3718		3.2714		H		1		UNL1		0.1543
52		H		-6.8637		0.8856		-1.0997		H		1		UNL1		0.1408
53		H		-4.9201		0.5758		-2.6135		H		1		UNL1		0.1273
54		H		-0.4584		-3.5706		-1.3248		H		1		UNL1		0.3540
@<TRIPOS>BOND
1		42		12		1
2		43		12		1
3		46		17		1
4		41		12		1
5		12		11		1
6		53		25		1
7		16		17		1
8		16		15		1
9		17		45		1
10		17		18		1
11		25		18		ar
12		25		24		ar
13		54		26		1
14		11		13		ar
15		11		10		ar
16		44		13		1
17		52		24		1
18		18		19		ar
19		40		10		1
20		15		26		ar
21		15		14		ar
22		26		27		ar
23		24		21		ar
24		13		6		ar
25		10		8		ar
26		14		4		ar
27		27		28		2
28		27		3		ar
29		29		1		1
30		19		47		1
31		19		20		ar
32		31		1		1
33		4		3		ar
34		4		5		1
35		6		5		1
36		6		7		ar
37		21		20		ar
38		21		22		1
39		8		7		ar
40		8		9		1
41		3		2		1
42		1		30		1
43		1		2		1
44		37		9		1
45		20		48		1
46		34		5		1
47		5		35		1
48		7		36		1
49		22		23		1
50		9		39		1
51		9		38		1
52		2		32		1
53		2		33		1
54		23		49		1
55		23		50		1
56		23		51		1

