@<TRIPOS>MOLECULE
WYP-2008-CB-168-6F
 50 52 0 0 0
SMALL
MULLIKEN_CHARGES
****
Gaussian 16 #p B3LYP/6-31G* opt
@<TRIPOS>ATOM
1		C		0.2970		4.0459		-1.3244		C.3		1		UNL1		-0.4427
2		C		0.1333		3.1671		-0.0710		C.3		1		UNL1		-0.3300
3		C		0.9742		1.9125		-0.1087		C.ar		1		UNL1		0.0352
4		C		0.5264		0.6604		-0.4726		C.ar		1		UNL1		0.2180
5		C		-0.9042		0.4036		-0.9004		C.3		1		UNL1		-0.4229
6		C		-1.8736		0.0216		0.2138		C.ar		1		UNL1		0.1282
7		C		-1.4904		-0.0026		1.5391		C.ar		1		UNL1		-0.1943
8		C		-2.3956		-0.3566		2.5688		C.ar		1		UNL1		-0.1356
9		C		-3.6936		-0.6884		2.2691		C.ar		1		UNL1		-0.1912
10		C		-4.1425		-0.6788		0.9210		C.ar		1		UNL1		0.1375
11		C		-5.4812		-1.0161		0.5870		C.ar		1		UNL1		-0.1945
12		C		-5.9136		-1.0044		-0.7196		C.ar		1		UNL1		-0.1333
13		C		-5.0162		-0.6521		-1.7536		C.ar		1		UNL1		-0.1339
14		C		-3.7104		-0.3201		-1.4627		C.ar		1		UNL1		-0.1963
15		C		-3.2270		-0.3208		-0.1248		C.ar		1		UNL1		0.0709
16		N		1.3073		-0.4671		-0.4991		N.ar		1		UNL1		-0.5836
17		C		2.5715		-0.3571		-0.1497		C.ar		1		UNL1		0.7878
18		N		3.3787		-1.4604		-0.1526		N.pl3		1		UNL1		-0.4556
19		C		4.8161		-1.3939		0.1042		C.3		1		UNL1		-0.1775
20		C		5.1884		-1.4856		1.5900		C.3		1		UNL1		-0.4447
21		C		2.7979		-2.7687		-0.4841		C.3		1		UNL1		-0.1408
22		C		2.8265		-3.0799		-1.9821		C.3		1		UNL1		-0.4458
23		N		3.1033		0.8502		0.2201		N.ar		1		UNL1		-0.7133
24		C		2.3677		2.0597		0.2585		C.ar		1		UNL1		0.5717
25		O		2.9463		3.0889		0.5990		O.2		1		UNL1		-0.5431
26		H		-0.0136		3.5122		-2.2308		H		1		UNL1		0.1351
27		H		1.3436		4.3425		-1.4451		H		1		UNL1		0.1670
28		H		-0.3079		4.9567		-1.2434		H		1		UNL1		0.1400
29		H		-0.9215		2.9130		0.0752		H		1		UNL1		0.1420
30		H		0.4409		3.7523		0.8030		H		1		UNL1		0.1629
31		H		-0.8688		-0.4121		-1.6321		H		1		UNL1		0.1728
32		H		-1.2951		1.2806		-1.4298		H		1		UNL1		0.1658
33		H		-0.4710		0.2575		1.8047		H		1		UNL1		0.1325
34		H		-2.0515		-0.3619		3.5997		H		1		UNL1		0.1275
35		H		-4.3950		-0.9607		3.0543		H		1		UNL1		0.1259
36		H		-6.1634		-1.2853		1.3904		H		1		UNL1		0.1279
37		H		-6.9411		-1.2644		-0.9594		H		1		UNL1		0.1280
38		H		-5.3593		-0.6430		-2.7848		H		1		UNL1		0.1274
39		H		-3.0403		-0.0533		-2.2732		H		1		UNL1		0.1319
40		H		5.2778		-2.2219		-0.4434		H		1		UNL1		0.1672
41		H		5.2307		-0.4830		-0.3455		H		1		UNL1		0.1566
42		H		4.8168		-2.4194		2.0251		H		1		UNL1		0.1629
43		H		6.2772		-1.4610		1.7126		H		1		UNL1		0.1564
44		H		4.7614		-0.6576		2.1661		H		1		UNL1		0.1607
45		H		3.3609		-3.5225		0.0785		H		1		UNL1		0.1420
46		H		1.7694		-2.7784		-0.1206		H		1		UNL1		0.1923
47		H		2.4116		-4.0771		-2.1691		H		1		UNL1		0.1492
48		H		2.2252		-2.3477		-2.5283		H		1		UNL1		0.1758
49		H		3.8480		-3.0600		-2.3802		H		1		UNL1		0.1415
50		H		4.0656		0.9516		0.5159		H		1		UNL1		0.3386
@<TRIPOS>BOND
1		38		13		1
2		48		22		1
3		49		22		1
4		39		14		1
5		26		1		1
6		47		22		1
7		22		21		1
8		13		14		ar
9		13		12		ar
10		31		5		1
11		14		15		ar
12		27		1		1
13		32		5		1
14		1		28		1
15		1		2		1
16		37		12		1
17		5		4		1
18		5		6		1
19		12		11		ar
20		16		4		ar
21		16		17		ar
22		21		18		1
23		21		46		1
24		21		45		1
25		4		3		ar
26		40		19		1
27		41		19		1
28		18		17		1
29		18		19		1
30		17		23		ar
31		15		6		ar
32		15		10		ar
33		3		2		1
34		3		24		ar
35		2		29		1
36		2		30		1
37		19		20		1
38		6		7		ar
39		23		24		ar
40		23		50		1
41		24		25		2
42		11		10		ar
43		11		36		1
44		10		9		ar
45		7		33		1
46		7		8		ar
47		20		43		1
48		20		42		1
49		20		44		1
50		9		8		ar
51		9		35		1
52		8		34		1

