@<TRIPOS>MOLECULE
WYP-2008-CB-168-6K
 57 60 0 0 0
SMALL
MULLIKEN_CHARGES
****
Gaussian 16 #p B3LYP/6-31G* opt
@<TRIPOS>ATOM
1		C		5.5276		-4.4022		0.8028		C.3		1		UNL1		-0.4415
2		C		5.0160		-3.1717		0.0467		C.3		1		UNL1		-0.2457
3		C		3.5050		-2.9573		0.1976		C.3		1		UNL1		-0.2514
4		C		2.9947		-1.7207		-0.5713		C.3		1		UNL1		-0.3485
5		C		1.5016		-1.5302		-0.4630		C.ar		1		UNL1		0.0393
6		C		0.8569		-0.6866		0.4137		C.ar		1		UNL1		0.2579
7		C		1.5965		0.2038		1.4124		C.3		1		UNL1		-0.4462
8		C		2.3361		1.4219		0.8663		C.ar		1		UNL1		0.1411
9		C		3.7101		1.4895		1.0053		C.ar		1		UNL1		-0.2145
10		C		4.4593		2.5983		0.5469		C.ar		1		UNL1		-0.1301
11		C		3.8227		3.6575		-0.0515		C.ar		1		UNL1		-0.1930
12		C		2.4099		3.6559		-0.1984		C.ar		1		UNL1		0.1447
13		C		1.7338		4.7570		-0.7887		C.ar		1		UNL1		-0.1977
14		C		0.3632		4.7679		-0.9083		C.ar		1		UNL1		-0.1310
15		C		-0.3915		3.6693		-0.4365		C.ar		1		UNL1		-0.1445
16		C		0.2320		2.5808		0.1344		C.ar		1		UNL1		-0.2063
17		C		1.6476		2.5308		0.2682		C.ar		1		UNL1		0.0640
18		N		-0.5159		-0.6013		0.5261		N.ar		1		UNL1		-0.5897
19		C		-1.2470		-1.3369		-0.2721		C.ar		1		UNL1		0.7841
20		N		-2.6151		-1.2632		-0.2380		N.pl3		1		UNL1		-0.6556
21		C		-3.3060		-0.5370		0.8301		C.3		1		UNL1		-0.1776
22		C		-4.7841		-0.4220		0.5247		C.ar		1		UNL1		0.1151
23		C		-5.2223		0.1617		-0.6730		C.ar		1		UNL1		-0.1679
24		C		-6.5838		0.2790		-0.9478		C.ar		1		UNL1		-0.1294
25		C		-7.5282		-0.1831		-0.0270		C.ar		1		UNL1		-0.1273
26		C		-7.1021		-0.7645		1.1670		C.ar		1		UNL1		-0.1275
27		C		-5.7371		-0.8857		1.4377		C.ar		1		UNL1		-0.1848
28		N		-0.6933		-2.1851		-1.1895		N.ar		1		UNL1		-0.7008
29		C		0.6996		-2.3621		-1.3457		C.ar		1		UNL1		0.5830
30		O		1.1074		-3.1658		-2.1793		O.2		1		UNL1		-0.5393
31		H		5.0372		-5.3164		0.4464		H		1		UNL1		0.1444
32		H		5.3284		-4.3188		1.8786		H		1		UNL1		0.1374
33		H		6.6084		-4.5318		0.6737		H		1		UNL1		0.1395
34		H		5.2596		-3.2697		-1.0204		H		1		UNL1		0.1377
35		H		5.5494		-2.2768		0.3995		H		1		UNL1		0.1241
36		H		2.9711		-3.8433		-0.1687		H		1		UNL1		0.1526
37		H		3.2532		-2.8581		1.2641		H		1		UNL1		0.1196
38		H		3.5210		-0.8267		-0.2280		H		1		UNL1		0.1448
39		H		3.2433		-1.8497		-1.6313		H		1		UNL1		0.1617
40		H		0.8503		0.5241		2.1476		H		1		UNL1		0.1737
41		H		2.3248		-0.4112		1.9527		H		1		UNL1		0.1624
42		H		4.2349		0.6671		1.4859		H		1		UNL1		0.1268
43		H		5.5387		2.6025		0.6723		H		1		UNL1		0.1289
44		H		4.3866		4.5148		-0.4115		H		1		UNL1		0.1277
45		H		2.3249		5.5993		-1.1413		H		1		UNL1		0.1271
46		H		-0.1407		5.6186		-1.3595		H		1		UNL1		0.1265
47		H		-1.4749		3.6845		-0.5254		H		1		UNL1		0.1220
48		H		-0.3619		1.7430		0.4830		H		1		UNL1		0.1734
49		H		-3.1229		-2.0514		-0.6190		H		1		UNL1		0.3252
50		H		-2.8397		0.4501		0.9009		H		1		UNL1		0.1955
51		H		-3.1531		-1.0241		1.8034		H		1		UNL1		0.1575
52		H		-4.4887		0.5226		-1.3896		H		1		UNL1		0.1407
53		H		-6.9094		0.7350		-1.8790		H		1		UNL1		0.1363
54		H		-8.5895		-0.0899		-0.2409		H		1		UNL1		0.1354
55		H		-7.8297		-1.1285		1.8874		H		1		UNL1		0.1357
56		H		-5.4090		-1.3431		2.3684		H		1		UNL1		0.1318
57		H		-1.2632		-2.7289		-1.8286		H		1		UNL1		0.3328
@<TRIPOS>BOND
1		30		29		2
2		53		24		1
3		57		28		1
4		39		4		1
5		52		23		1
6		46		14		1
7		29		28		ar
8		29		5		ar
9		28		19		ar
10		45		13		1
11		34		2		1
12		24		23		ar
13		24		25		ar
14		14		13		ar
15		14		15		ar
16		13		12		ar
17		23		22		ar
18		49		20		1
19		4		5		1
20		4		38		1
21		4		3		1
22		47		15		1
23		5		6		ar
24		15		16		ar
25		44		11		1
26		19		20		1
27		19		18		ar
28		54		25		1
29		20		21		1
30		12		11		ar
31		12		17		ar
32		36		3		1
33		11		10		ar
34		25		26		ar
35		2		3		1
36		2		35		1
37		2		1		1
38		16		17		ar
39		16		48		1
40		3		37		1
41		17		8		ar
42		6		18		ar
43		6		7		1
44		31		1		1
45		22		21		1
46		22		27		ar
47		10		43		1
48		10		9		ar
49		33		1		1
50		1		32		1
51		21		50		1
52		21		51		1
53		8		9		ar
54		8		7		1
55		9		42		1
56		26		27		ar
57		26		55		1
58		7		41		1
59		7		40		1
60		27		56		1

