@<TRIPOS>MOLECULE
WYP-2009-EJMC-1016-5F
 55 58 0 0 0
SMALL
MULLIKEN_CHARGES
****
Gaussian 16 #p B3LYP/6-31G* opt
@<TRIPOS>ATOM
1		C		-8.1007		-3.8348		-0.4941		C.3		1		UNL1		-0.2176
2		O		-7.9172		-2.6614		0.2834		O.3		1		UNL1		-0.5039
3		C		-6.6949		-2.0589		0.2670		C.ar		1		UNL1		0.3788
4		C		-5.5897		-2.5153		-0.4611		C.ar		1		UNL1		-0.1940
5		C		-4.3847		-1.8123		-0.3957		C.ar		1		UNL1		-0.1749
6		C		-4.2506		-0.6610		0.3846		C.ar		1		UNL1		0.1389
7		C		-2.9452		0.0841		0.4481		C.3		1		UNL1		-0.4915
8		S		-2.9386		1.4194		-0.8439		S.3		1		UNL1		0.1509
9		C		-1.3889		2.2147		-0.4939		C.ar		1		UNL1		0.3255
10		N		-0.5965		1.7963		0.4487		N.ar		1		UNL1		-0.5242
11		C		0.5851		2.4881		0.6470		C.ar		1		UNL1		0.2384
12		C		1.4480		1.9242		1.7604		C.3		1		UNL1		-0.4115
13		C		2.4874		0.9222		1.2750		C.ar		1		UNL1		0.1766
14		C		3.8501		1.1193		1.5242		C.ar		1		UNL1		-0.1993
15		C		4.8027		0.1963		1.0939		C.ar		1		UNL1		-0.1741
16		C		4.4258		-0.9608		0.3954		C.ar		1		UNL1		0.0895
17		C		5.4372		-1.9457		-0.0653		C.ar		1		UNL1		0.0892
18		C		5.3013		-2.5954		-1.3041		C.ar		1		UNL1		-0.1740
19		C		6.2502		-3.5203		-1.7372		C.ar		1		UNL1		-0.1336
20		C		7.3587		-3.8161		-0.9416		C.ar		1		UNL1		-0.1270
21		C		7.5081		-3.1784		0.2913		C.ar		1		UNL1		-0.1336
22		C		6.5578		-2.2549		0.7244		C.ar		1		UNL1		-0.1738
23		C		3.0554		-1.1552		0.1482		C.ar		1		UNL1		-0.1732
24		C		2.1060		-0.2335		0.5787		C.ar		1		UNL1		-0.1825
25		C		0.9695		3.5784		-0.0953		C.ar		1		UNL1		0.0643
26		C		2.2605		4.3278		0.1062		C.3		1		UNL1		-0.5491
27		C		0.0851		4.0581		-1.1489		C.ar		1		UNL1		0.5708
28		O		0.2631		5.0145		-1.8938		O.2		1		UNL1		-0.5265
29		N		-1.0976		3.2924		-1.2748		N.ar		1		UNL1		-0.6485
30		C		-5.3715		-0.2165		1.1057		C.ar		1		UNL1		-0.1666
31		C		-6.5765		-0.9019		1.0531		C.ar		1		UNL1		-0.1711
32		H		-9.1366		-4.1391		-0.3355		H		1		UNL1		0.1734
33		H		-7.9394		-3.6398		-1.5625		H		1		UNL1		0.1549
34		H		-7.4316		-4.6425		-0.1693		H		1		UNL1		0.1542
35		H		-5.6525		-3.4075		-1.0733		H		1		UNL1		0.1362
36		H		-3.5323		-2.1760		-0.9649		H		1		UNL1		0.1350
37		H		-2.0902		-0.5653		0.2516		H		1		UNL1		0.2008
38		H		-2.7875		0.5715		1.4118		H		1		UNL1		0.2049
39		H		1.9549		2.7387		2.2878		H		1		UNL1		0.1547
40		H		0.7756		1.4382		2.4765		H		1		UNL1		0.1722
41		H		4.1740		2.0087		2.0603		H		1		UNL1		0.1264
42		H		5.8554		0.3910		1.2797		H		1		UNL1		0.1330
43		H		4.4575		-2.3522		-1.9439		H		1		UNL1		0.1323
44		H		6.1279		-4.0037		-2.7030		H		1		UNL1		0.1300
45		H		8.0989		-4.5364		-1.2792		H		1		UNL1		0.1292
46		H		8.3626		-3.4069		0.9231		H		1		UNL1		0.1300
47		H		6.6702		-1.7852		1.6977		H		1		UNL1		0.1315
48		H		2.7290		-2.0556		-0.3652		H		1		UNL1		0.1311
49		H		1.0523		-0.4109		0.3814		H		1		UNL1		0.1426
50		H		2.2941		4.8260		1.0843		H		1		UNL1		0.1576
51		H		2.3555		5.0950		-0.6650		H		1		UNL1		0.1943
52		H		3.1282		3.6614		0.0468		H		1		UNL1		0.1690
53		H		-1.7367		3.6072		-1.9979		H		1		UNL1		0.3530
54		H		-5.2942		0.6786		1.7184		H		1		UNL1		0.1375
55		H		-7.4428		-0.5648		1.6133		H		1		UNL1		0.1439
@<TRIPOS>BOND
1		44		19		1
2		53		29		1
3		43		18		1
4		28		27		2
5		19		18		ar
6		19		20		ar
7		33		1		1
8		18		17		ar
9		45		20		1
10		29		27		ar
11		29		9		ar
12		27		25		ar
13		35		4		1
14		36		5		1
15		20		21		ar
16		8		9		1
17		8		7		1
18		51		26		1
19		1		32		1
20		1		34		1
21		1		2		1
22		9		10		ar
23		4		5		ar
24		4		3		ar
25		5		6		ar
26		48		23		1
27		25		26		1
28		25		11		ar
29		17		16		1
30		17		22		ar
31		52		26		1
32		26		50		1
33		23		16		ar
34		23		24		ar
35		37		7		1
36		3		2		1
37		3		31		ar
38		21		22		ar
39		21		46		1
40		49		24		1
41		6		7		1
42		6		30		ar
43		16		15		ar
44		7		38		1
45		10		11		ar
46		24		13		ar
47		11		12		1
48		22		47		1
49		31		30		ar
50		31		55		1
51		15		42		1
52		15		14		ar
53		30		54		1
54		13		14		ar
55		13		12		1
56		14		41		1
57		12		39		1
58		12		40		1

