@<TRIPOS>MOLECULE
WYP-2008-CB-168-6Q
 59 61 0 0 0
SMALL
MULLIKEN_CHARGES
****
Gaussian 16 #p B3LYP/6-31G* opt
@<TRIPOS>ATOM
1		C		0.4856		-4.3883		1.3349		C.3		1		UNL1		-0.4439
2		C		0.7983		-3.0675		0.6242		C.3		1		UNL1		-0.2458
3		C		1.9640		-3.1913		-0.3646		C.3		1		UNL1		-0.2561
4		C		2.2785		-1.9085		-1.1494		C.3		1		UNL1		-0.1572
5		N		2.7170		-0.7831		-0.3110		N.pl3		1		UNL1		-0.4656
6		C		4.1115		-0.7763		0.1276		C.3		1		UNL1		-0.1815
7		C		5.0663		-0.0002		-0.7963		C.3		1		UNL1		-0.2599
8		C		6.5237		-0.0620		-0.3210		C.3		1		UNL1		-0.2538
9		C		7.4840		0.7021		-1.2379		C.3		1		UNL1		-0.4430
10		C		1.8671		0.2649		-0.0786		C.ar		1		UNL1		0.7936
11		N		0.6318		0.2348		-0.5335		N.ar		1		UNL1		-0.5835
12		C		-0.1852		1.2988		-0.2567		C.ar		1		UNL1		0.2198
13		C		-1.5730		1.1658		-0.8457		C.3		1		UNL1		-0.4142
14		C		-2.5974		0.4455		0.0262		C.ar		1		UNL1		0.1258
15		C		-2.2917		0.0015		1.2965		C.ar		1		UNL1		-0.1953
16		C		-3.2478		-0.6640		2.1019		C.ar		1		UNL1		-0.1364
17		C		-4.5181		-0.8868		1.6315		C.ar		1		UNL1		-0.1912
18		C		-4.8872		-0.4505		0.3306		C.ar		1		UNL1		0.1375
19		C		-6.1957		-0.6685		-0.1769		C.ar		1		UNL1		-0.1945
20		C		-6.5507		-0.2434		-1.4369		C.ar		1		UNL1		-0.1332
21		C		-5.6025		0.4223		-2.2471		C.ar		1		UNL1		-0.1339
22		C		-4.3241		0.6489		-1.7842		C.ar		1		UNL1		-0.1963
23		C		-3.9204		0.2246		-0.4878		C.ar		1		UNL1		0.0711
24		C		0.1828		2.4016		0.4836		C.ar		1		UNL1		0.0483
25		C		-0.7282		3.5600		0.8026		C.3		1		UNL1		-0.5407
26		C		1.5408		2.4657		0.9816		C.ar		1		UNL1		0.5630
27		O		2.0629		3.3632		1.6380		O.2		1		UNL1		-0.5425
28		N		2.3259		1.3352		0.6424		N.ar		1		UNL1		-0.7139
29		H		0.2071		-5.1705		0.6177		H		1		UNL1		0.1414
30		H		-0.3462		-4.2724		2.0386		H		1		UNL1		0.1473
31		H		1.3524		-4.7532		1.9007		H		1		UNL1		0.1367
32		H		1.0365		-2.2984		1.3701		H		1		UNL1		0.1359
33		H		-0.0922		-2.7063		0.0956		H		1		UNL1		0.1574
34		H		1.7388		-3.9743		-1.1034		H		1		UNL1		0.1359
35		H		2.8631		-3.5344		0.1692		H		1		UNL1		0.1267
36		H		3.0742		-2.1082		-1.8793		H		1		UNL1		0.1394
37		H		1.3963		-1.5775		-1.6977		H		1		UNL1		0.1962
38		H		4.1781		-0.3995		1.1571		H		1		UNL1		0.1512
39		H		4.4318		-1.8216		0.1853		H		1		UNL1		0.1642
40		H		4.7443		1.0474		-0.8689		H		1		UNL1		0.1466
41		H		4.9884		-0.4131		-1.8112		H		1		UNL1		0.1467
42		H		6.5926		0.3428		0.6989		H		1		UNL1		0.1371
43		H		6.8394		-1.1129		-0.2528		H		1		UNL1		0.1363
44		H		7.4651		0.2975		-2.2570		H		1		UNL1		0.1462
45		H		7.2150		1.7635		-1.2972		H		1		UNL1		0.1505
46		H		8.5150		0.6393		-0.8730		H		1		UNL1		0.1495
47		H		-1.9589		2.1609		-1.0990		H		1		UNL1		0.1631
48		H		-1.4665		0.6191		-1.7903		H		1		UNL1		0.1711
49		H		-1.2952		0.1651		1.6937		H		1		UNL1		0.1355
50		H		-2.9648		-0.9955		3.0975		H		1		UNL1		0.1277
51		H		-5.2580		-1.3966		2.2440		H		1		UNL1		0.1260
52		H		-6.9176		-1.1813		0.4548		H		1		UNL1		0.1280
53		H		-7.5561		-0.4171		-1.8111		H		1		UNL1		0.1281
54		H		-5.8845		0.7574		-3.2418		H		1		UNL1		0.1275
55		H		-3.6138		1.1616		-2.4242		H		1		UNL1		0.1320
56		H		-1.7004		3.2240		1.1795		H		1		UNL1		0.1592
57		H		-0.2577		4.1876		1.5630		H		1		UNL1		0.1867
58		H		-0.9150		4.1925		-0.0762		H		1		UNL1		0.1540
59		H		3.2785		1.3934		0.9774		H		1		UNL1		0.3389
@<TRIPOS>BOND
1		54		21		1
2		55		22		1
3		44		9		1
4		21		22		ar
5		21		20		ar
6		36		4		1
7		41		7		1
8		53		20		1
9		48		13		1
10		22		23		ar
11		37		4		1
12		20		19		ar
13		45		9		1
14		9		46		1
15		9		8		1
16		4		3		1
17		4		5		1
18		34		3		1
19		47		13		1
20		40		7		1
21		13		12		1
22		13		14		1
23		7		8		1
24		7		6		1
25		11		12		ar
26		11		10		ar
27		23		14		ar
28		23		18		ar
29		3		35		1
30		3		2		1
31		8		43		1
32		8		42		1
33		5		10		1
34		5		6		1
35		12		24		ar
36		19		18		ar
37		19		52		1
38		10		28		ar
39		58		25		1
40		14		15		ar
41		33		2		1
42		6		39		1
43		6		38		1
44		18		17		ar
45		24		25		1
46		24		26		ar
47		29		1		1
48		2		1		1
49		2		32		1
50		28		59		1
51		28		26		ar
52		25		56		1
53		25		57		1
54		26		27		2
55		15		49		1
56		15		16		ar
57		1		31		1
58		1		30		1
59		17		16		ar
60		17		51		1
61		16		50		1

