@<TRIPOS>MOLECULE
WYP-2008-BMC-3887-5O
 56 58 0 0 0
SMALL
MULLIKEN_CHARGES
****
Gaussian 16 #p B3LYP/6-31G* opt
@<TRIPOS>ATOM
1		C		-1.6104		4.8405		-0.7126		C.3		1		UNL1		-0.4461
2		C		-1.9176		3.6150		0.1679		C.3		1		UNL1		-0.3335
3		C		-0.9296		2.4893		-0.0201		C.ar		1		UNL1		0.0491
4		C		-1.1066		1.3978		-0.8340		C.ar		1		UNL1		0.2233
5		C		-2.3509		1.1726		-1.6770		C.3		1		UNL1		-0.4198
6		C		-3.3730		0.2607		-1.0127		C.ar		1		UNL1		0.1596
7		C		-4.6643		0.7178		-0.7378		C.ar		1		UNL1		-0.2131
8		C		-5.6068		-0.1198		-0.1341		C.ar		1		UNL1		-0.0116
9		C		-6.9698		0.4224		0.2066		C.3		1		UNL1		0.7898
10		F		-6.9655		1.0672		1.3962		F		1		UNL1		-0.2587
11		F		-7.8963		-0.5563		0.2910		F		1		UNL1		-0.2681
12		F		-7.3984		1.3114		-0.7178		F		1		UNL1		-0.2701
13		C		-5.2736		-1.4296		0.2022		C.ar		1		UNL1		-0.1975
14		C		-3.9853		-1.8920		-0.0728		C.ar		1		UNL1		-0.0125
15		C		-3.6289		-3.3256		0.2229		C.3		1		UNL1		0.7905
16		F		-3.8508		-4.1236		-0.8476		F		1		UNL1		-0.2595
17		F		-4.3601		-3.8253		1.2438		F		1		UNL1		-0.2698
18		F		-2.3258		-3.4620		0.5505		F		1		UNL1		-0.2677
19		C		-3.0422		-1.0583		-0.6733		C.ar		1		UNL1		-0.1998
20		N		-0.1865		0.3737		-0.9466		N.ar		1		UNL1		-0.5125
21		C		0.9282		0.4903		-0.2879		C.ar		1		UNL1		0.3187
22		S		2.0846		-0.8518		-0.5303		S.3		1		UNL1		0.2036
23		C		3.1452		-0.7995		0.9806		C.3		1		UNL1		-0.5662
24		C		4.2796		0.2171		0.8745		C.2		1		UNL1		0.4281
25		O		4.0195		1.3981		1.1116		O.2		1		UNL1		-0.4808
26		C		5.6408		-0.2045		0.4886		C.ar		1		UNL1		0.0799
27		C		5.9838		-1.5243		0.1300		C.ar		1		UNL1		-0.1788
28		C		7.2803		-1.8490		-0.2303		C.ar		1		UNL1		-0.1766
29		C		8.2802		-0.8605		-0.2370		C.ar		1		UNL1		0.3933
30		O		9.5148		-1.2798		-0.5979		O.3		1		UNL1		-0.4946
31		C		10.5796		-0.3340		-0.6337		C.3		1		UNL1		-0.2252
32		C		7.9569		0.4606		0.1171		C.ar		1		UNL1		-0.1935
33		C		6.6512		0.7732		0.4693		C.ar		1		UNL1		-0.1605
34		N		1.2311		1.5505		0.4996		N.ar		1		UNL1		-0.6650
35		C		0.3302		2.6244		0.7041		C.ar		1		UNL1		0.5765
36		O		0.6532		3.5577		1.4288		O.2		1		UNL1		-0.5200
37		H		-2.3310		5.6437		-0.5209		H		1		UNL1		0.1460
38		H		-0.6090		5.2222		-0.4930		H		1		UNL1		0.1748
39		H		-1.6558		4.5899		-1.7791		H		1		UNL1		0.1385
40		H		-2.9373		3.2636		-0.0187		H		1		UNL1		0.1351
41		H		-1.8748		3.9234		1.2181		H		1		UNL1		0.1730
42		H		-2.0207		0.7161		-2.6172		H		1		UNL1		0.1837
43		H		-2.8230		2.1254		-1.9273		H		1		UNL1		0.1636
44		H		-4.9474		1.7320		-1.0032		H		1		UNL1		0.1556
45		H		-6.0036		-2.0799		0.6689		H		1		UNL1		0.1728
46		H		-2.0395		-1.4220		-0.8716		H		1		UNL1		0.1879
47		H		2.5232		-0.5410		1.8413		H		1		UNL1		0.2209
48		H		3.4900		-1.8259		1.1125		H		1		UNL1		0.2044
49		H		5.2357		-2.3100		0.1158		H		1		UNL1		0.1437
50		H		7.5514		-2.8608		-0.5127		H		1		UNL1		0.1544
51		H		11.4608		-0.8945		-0.9482		H		1		UNL1		0.1822
52		H		10.7585		0.1024		0.3565		H		1		UNL1		0.1635
53		H		10.3781		0.4658		-1.3564		H		1		UNL1		0.1642
54		H		8.7113		1.2385		0.1168		H		1		UNL1		0.1485
55		H		6.3866		1.7898		0.7401		H		1		UNL1		0.1772
56		H		2.1696		1.6628		0.9054		H		1		UNL1		0.3992
@<TRIPOS>BOND
1		42		5		1
2		43		5		1
3		39		1		1
4		5		6		1
5		5		4		1
6		53		31		1
7		6		7		ar
8		6		19		ar
9		44		7		1
10		51		31		1
11		20		4		ar
12		20		21		ar
13		46		19		1
14		16		15		1
15		4		3		ar
16		7		8		ar
17		12		9		1
18		1		37		1
19		1		38		1
20		1		2		1
21		19		14		ar
22		31		30		1
23		31		52		1
24		30		29		1
25		22		21		1
26		22		23		1
27		50		28		1
28		21		34		ar
29		29		28		ar
30		29		32		ar
31		28		27		ar
32		8		13		ar
33		8		9		1
34		14		13		ar
35		14		15		1
36		3		2		1
37		3		35		ar
38		40		2		1
39		49		27		1
40		54		32		1
41		32		33		ar
42		27		26		ar
43		2		41		1
44		13		45		1
45		9		11		1
46		9		10		1
47		15		18		1
48		15		17		1
49		33		26		ar
50		33		55		1
51		26		24		1
52		34		35		ar
53		34		56		1
54		35		36		2
55		24		23		1
56		24		25		2
57		23		48		1
58		23		47		1

