@<TRIPOS>MOLECULE
WYP-2008-CB-168-6L
 48 51 0 0 0
SMALL
MULLIKEN_CHARGES
****
Gaussian 16 #p B3LYP/6-31G* opt
@<TRIPOS>ATOM
1		C		1.0099		3.2212		-0.2847		C.3		1		UNL1		-0.5397
2		C		0.2313		1.9618		-0.0084		C.ar		1		UNL1		0.0516
3		C		0.6412		0.9465		0.8291		C.ar		1		UNL1		0.2677
4		C		1.9643		1.0008		1.5847		C.3		1		UNL1		-0.4444
5		C		3.2234		0.7534		0.7592		C.ar		1		UNL1		0.1358
6		C		4.0880		1.8040		0.5160		C.ar		1		UNL1		-0.2095
7		C		5.2827		1.6375		-0.2229		C.ar		1		UNL1		-0.1303
8		C		5.6200		0.4009		-0.7156		C.ar		1		UNL1		-0.1930
9		C		4.7796		-0.7197		-0.4802		C.ar		1		UNL1		0.1433
10		C		5.1271		-2.0102		-0.9622		C.ar		1		UNL1		-0.1977
11		C		4.3225		-3.0995		-0.7200		C.ar		1		UNL1		-0.1312
12		C		3.1273		-2.9390		0.0186		C.ar		1		UNL1		-0.1422
13		C		2.7557		-1.7008		0.4967		C.ar		1		UNL1		-0.2013
14		C		3.5626		-0.5515		0.2650		C.ar		1		UNL1		0.0647
15		N		-0.0955		-0.1866		1.0815		N.ar		1		UNL1		-0.5856
16		C		-1.2593		-0.3031		0.4879		C.ar		1		UNL1		0.7494
17		N		-2.0268		-1.4118		0.7526		N.pl3		1		UNL1		-0.6221
18		C		-3.0581		-1.9196		-0.1500		C.3		1		UNL1		-0.2334
19		C		-4.3600		-1.1312		-0.1195		C.ar		1		UNL1		0.1201
20		C		-5.0547		-0.8812		-1.3090		C.ar		1		UNL1		-0.1876
21		C		-6.2740		-0.1997		-1.2910		C.ar		1		UNL1		-0.1221
22		C		-6.8075		0.2429		-0.0810		C.ar		1		UNL1		-0.1254
23		C		-6.1166		0.0032		1.1099		C.ar		1		UNL1		-0.1268
24		C		-4.9011		-0.6788		1.0914		C.ar		1		UNL1		-0.1592
25		N		-1.7461		0.6422		-0.3601		N.ar		1		UNL1		-0.6914
26		C		-1.0560		1.8405		-0.6705		C.ar		1		UNL1		0.5672
27		O		-1.5852		2.6450		-1.4310		O.2		1		UNL1		-0.5362
28		H		0.3630		3.9337		-0.8013		H		1		UNL1		0.1872
29		H		1.8834		3.0333		-0.9203		H		1		UNL1		0.1701
30		H		1.3755		3.6887		0.6379		H		1		UNL1		0.1437
31		H		2.0602		1.9883		2.0503		H		1		UNL1		0.1586
32		H		1.8982		0.2709		2.3979		H		1		UNL1		0.1706
33		H		3.8473		2.7889		0.9075		H		1		UNL1		0.1247
34		H		5.9295		2.4940		-0.3932		H		1		UNL1		0.1285
35		H		6.5361		0.2592		-1.2842		H		1		UNL1		0.1270
36		H		6.0504		-2.1211		-1.5265		H		1		UNL1		0.1267
37		H		4.6027		-4.0814		-1.0923		H		1		UNL1		0.1255
38		H		2.4953		-3.8027		0.2099		H		1		UNL1		0.1193
39		H		1.8249		-1.5925		1.0425		H		1		UNL1		0.1646
40		H		-1.5045		-2.0953		1.2847		H		1		UNL1		0.3420
41		H		-2.6872		-1.9726		-1.1847		H		1		UNL1		0.1653
42		H		-3.2505		-2.9517		0.1641		H		1		UNL1		0.1770
43		H		-4.6404		-1.2213		-2.2560		H		1		UNL1		0.1348
44		H		-6.7989		-0.0087		-2.2229		H		1		UNL1		0.1406
45		H		-7.7524		0.7790		-0.0648		H		1		UNL1		0.1388
46		H		-6.5244		0.3519		2.0549		H		1		UNL1		0.1391
47		H		-4.3566		-0.8535		2.0152		H		1		UNL1		0.1423
48		H		-2.6809		0.5737		-0.7497		H		1		UNL1		0.3529
@<TRIPOS>BOND
1		43		20		1
2		44		21		1
3		36		10		1
4		27		26		2
5		20		21		ar
6		20		19		ar
7		21		22		ar
8		35		8		1
9		41		18		1
10		37		11		1
11		10		11		ar
12		10		9		ar
13		29		1		1
14		28		1		1
15		48		25		1
16		11		12		ar
17		8		9		ar
18		8		7		ar
19		26		25		ar
20		26		2		ar
21		9		14		ar
22		34		7		1
23		25		16		ar
24		1		2		1
25		1		30		1
26		7		6		ar
27		18		19		1
28		18		42		1
29		18		17		1
30		19		24		ar
31		22		45		1
32		22		23		ar
33		2		3		ar
34		12		38		1
35		12		13		ar
36		14		13		ar
37		14		5		ar
38		16		17		1
39		16		15		ar
40		13		39		1
41		6		5		ar
42		6		33		1
43		17		40		1
44		5		4		1
45		3		15		ar
46		3		4		1
47		24		23		ar
48		24		47		1
49		23		46		1
50		4		31		1
51		4		32		1

