@<TRIPOS>MOLECULE
WYP-2009-EJMC-1016-5S
 50 52 0 0 0
SMALL
MULLIKEN_CHARGES
****
Gaussian 16 #p B3LYP/6-31G* opt
@<TRIPOS>ATOM
1		C		0.9550		4.0860		0.6502		C.3		1		UNL1		-0.4457
2		C		1.3285		2.8927		-0.2487		C.3		1		UNL1		-0.3349
3		C		0.5157		1.6547		0.0434		C.ar		1		UNL1		0.0495
4		C		0.9170		0.6131		0.8477		C.ar		1		UNL1		0.2275
5		C		2.2591		0.5796		1.5577		C.3		1		UNL1		-0.4195
6		C		3.3685		-0.0658		0.7352		C.ar		1		UNL1		0.1835
7		C		3.2521		-1.3949		0.2999		C.ar		1		UNL1		-0.2461
8		C		4.2662		-2.0012		-0.4424		C.ar		1		UNL1		0.1899
9		C		4.1367		-3.4318		-0.9141		C.3		1		UNL1		-0.5310
10		C		5.4156		-1.2554		-0.7473		C.ar		1		UNL1		-0.2383
11		C		5.5613		0.0669		-0.3270		C.ar		1		UNL1		0.1874
12		C		6.7996		0.8646		-0.6674		C.3		1		UNL1		-0.5305
13		C		4.5239		0.6492		0.4179		C.ar		1		UNL1		-0.2513
14		N		0.1535		-0.5175		1.0654		N.ar		1		UNL1		-0.5087
15		C		-1.0236		-0.5731		0.5188		C.ar		1		UNL1		0.3258
16		S		-1.9712		-2.0410		0.8702		S.3		1		UNL1		0.1878
17		C		-3.2646		-2.0835		-0.4530		C.3		1		UNL1		-0.5470
18		C		-4.3969		-1.0834		-0.3507		C.ar		1		UNL1		0.1454
19		C		-4.7286		-0.2900		-1.4576		C.ar		1		UNL1		-0.2000
20		C		-5.7908		0.6167		-1.3939		C.ar		1		UNL1		-0.1160
21		C		-6.5357		0.7357		-0.2224		C.ar		1		UNL1		-0.1263
22		C		-6.2134		-0.0532		0.8863		C.ar		1		UNL1		-0.1280
23		C		-5.1516		-0.9524		0.8245		C.ar		1		UNL1		-0.1604
24		N		-1.5296		0.4253		-0.2516		N.ar		1		UNL1		-0.6519
25		C		-0.8094		1.6077		-0.5540		C.ar		1		UNL1		0.5730
26		O		-1.3354		2.4660		-1.2551		O.2		1		UNL1		-0.5316
27		H		-0.1029		4.3372		0.5273		H		1		UNL1		0.1701
28		H		1.1330		3.8618		1.7086		H		1		UNL1		0.1395
29		H		1.5475		4.9696		0.3860		H		1		UNL1		0.1424
30		H		1.1456		3.1743		-1.2917		H		1		UNL1		0.1668
31		H		2.3964		2.6722		-0.1609		H		1		UNL1		0.1450
32		H		2.1127		0.0104		2.4827		H		1		UNL1		0.1750
33		H		2.5612		1.5913		1.8425		H		1		UNL1		0.1555
34		H		2.3547		-1.9554		0.5492		H		1		UNL1		0.1450
35		H		4.0961		-3.4893		-2.0096		H		1		UNL1		0.1597
36		H		3.2280		-3.8998		-0.5231		H		1		UNL1		0.1571
37		H		4.9923		-4.0390		-0.5936		H		1		UNL1		0.1581
38		H		6.2145		-1.7210		-1.3225		H		1		UNL1		0.1105
39		H		7.2399		1.3236		0.2261		H		1		UNL1		0.1586
40		H		7.5650		0.2354		-1.1327		H		1		UNL1		0.1534
41		H		6.5708		1.6795		-1.3665		H		1		UNL1		0.1624
42		H		4.6293		1.6768		0.7625		H		1		UNL1		0.1133
43		H		-2.7706		-2.0206		-1.4272		H		1		UNL1		0.1960
44		H		-3.6445		-3.1072		-0.3571		H		1		UNL1		0.2081
45		H		-4.1582		-0.3851		-2.3795		H		1		UNL1		0.1427
46		H		-6.0283		1.2282		-2.2597		H		1		UNL1		0.1454
47		H		-7.3601		1.4411		-0.1686		H		1		UNL1		0.1407
48		H		-6.7893		0.0368		1.8033		H		1		UNL1		0.1411
49		H		-4.8963		-1.5515		1.6945		H		1		UNL1		0.1478
50		H		-2.4886		0.4118		-0.5871		H		1		UNL1		0.3633
@<TRIPOS>BOND
1		45		19		1
2		46		20		1
3		35		9		1
4		19		20		ar
5		19		18		ar
6		43		17		1
7		20		21		ar
8		41		12		1
9		38		10		1
10		30		2		1
11		26		25		2
12		40		12		1
13		9		37		1
14		9		36		1
15		9		8		1
16		10		8		ar
17		10		11		ar
18		12		11		1
19		12		39		1
20		50		24		1
21		25		24		ar
22		25		3		ar
23		17		44		1
24		17		18		1
25		17		16		1
26		8		7		ar
27		18		23		ar
28		11		13		ar
29		24		15		ar
30		2		31		1
31		2		3		1
32		2		1		1
33		21		47		1
34		21		22		ar
35		3		4		ar
36		7		34		1
37		7		6		ar
38		29		1		1
39		13		6		ar
40		13		42		1
41		15		16		1
42		15		14		ar
43		27		1		1
44		1		28		1
45		6		5		1
46		23		22		ar
47		23		49		1
48		4		14		ar
49		4		5		1
50		22		48		1
51		5		33		1
52		5		32		1

