@<TRIPOS>MOLECULE
WYP-2009-EJMC-1016-5N
 46 48 0 0 0
SMALL
MULLIKEN_CHARGES
****
Gaussian 16 #p B3LYP/6-31G* opt
@<TRIPOS>ATOM
1		C		-1.9242		2.7687		-3.0886		C.3		1		UNL1		-0.4476
2		C		-2.3106		2.5289		-1.6170		C.3		1		UNL1		-0.3365
3		C		-1.1165		2.2864		-0.7266		C.ar		1		UNL1		0.0514
4		C		-0.6586		1.0530		-0.3341		C.ar		1		UNL1		0.2321
5		C		-1.3281		-0.2457		-0.7480		C.3		1		UNL1		-0.4213
6		C		-2.5000		-0.6501		0.1388		C.ar		1		UNL1		0.1763
7		C		-2.3665		-0.7156		1.5328		C.ar		1		UNL1		-0.1705
8		C		-3.4404		-1.1092		2.3289		C.ar		1		UNL1		-0.1286
9		C		-4.6683		-1.4471		1.7554		C.ar		1		UNL1		-0.1488
10		C		-4.7932		-1.3820		0.3711		C.ar		1		UNL1		0.0852
11		BR		-6.4633		-1.8402		-0.4443		Br		1		UNL1		-0.1295
12		C		-3.7291		-0.9885		-0.4389		C.ar		1		UNL1		-0.2131
13		N		0.4446		0.8719		0.4866		N.ar		1		UNL1		-0.5306
14		C		1.0809		1.9276		0.8953		C.ar		1		UNL1		0.3443
15		S		2.4924		1.8479		1.9826		S.3		1		UNL1		0.1664
16		C		2.7669		0.0198		2.0981		C.3		1		UNL1		-0.5383
17		C		3.8363		-0.4940		1.1694		C.ar		1		UNL1		0.2001
18		C		5.1418		-0.7027		1.6357		C.ar		1		UNL1		-0.1907
19		C		6.1366		-1.1810		0.7876		C.ar		1		UNL1		-0.1451
20		C		5.8083		-1.4499		-0.5387		C.ar		1		UNL1		0.2746
21		N		6.8517		-1.9593		-1.4427		N.pl3		1		UNL1		0.3807
22		O		6.5335		-2.1910		-2.6087		O.2		1		UNL1		-0.3926
23		O		7.9797		-2.1230		-0.9784		O.2		1		UNL1		-0.3934
24		C		4.5196		-1.2547		-1.0339		C.ar		1		UNL1		-0.1467
25		C		3.5380		-0.7761		-0.1731		C.ar		1		UNL1		-0.1885
26		N		0.7153		3.1882		0.5411		N.ar		1		UNL1		-0.6535
27		C		-0.3936		3.4751		-0.2919		C.ar		1		UNL1		0.5830
28		O		-0.6502		4.6384		-0.5718		O.2		1		UNL1		-0.5170
29		H		-2.8170		2.9653		-3.6926		H		1		UNL1		0.1506
30		H		-1.4101		1.8995		-3.5158		H		1		UNL1		0.1393
31		H		-1.2602		3.6343		-3.1723		H		1		UNL1		0.1733
32		H		-3.0148		1.6952		-1.5418		H		1		UNL1		0.1469
33		H		-2.8302		3.4187		-1.2450		H		1		UNL1		0.1739
34		H		-0.5622		-1.0291		-0.7119		H		1		UNL1		0.1766
35		H		-1.6687		-0.1785		-1.7851		H		1		UNL1		0.1668
36		H		-1.4168		-0.4558		1.9908		H		1		UNL1		0.1448
37		H		-3.3261		-1.1560		3.4085		H		1		UNL1		0.1419
38		H		-5.5081		-1.7537		2.3690		H		1		UNL1		0.1556
39		H		-3.8586		-0.9513		-1.5160		H		1		UNL1		0.1502
40		H		3.0282		-0.1569		3.1442		H		1		UNL1		0.1980
41		H		1.7943		-0.4317		1.8898		H		1		UNL1		0.2350
42		H		5.3840		-0.4915		2.6741		H		1		UNL1		0.1459
43		H		7.1490		-1.3492		1.1333		H		1		UNL1		0.1869
44		H		4.3067		-1.4809		-2.0714		H		1		UNL1		0.1866
45		H		2.5278		-0.6160		-0.5370		H		1		UNL1		0.1681
46		H		1.2412		3.9994		0.8521		H		1		UNL1		0.3577
@<TRIPOS>BOND
1		29		1		1
2		30		1		1
3		31		1		1
4		1		2		1
5		22		21		2
6		44		24		1
7		35		5		1
8		2		32		1
9		2		33		1
10		2		3		1
11		39		12		1
12		21		23		2
13		21		20		1
14		24		20		ar
15		24		25		ar
16		5		34		1
17		5		4		1
18		5		6		1
19		3		4		ar
20		3		27		ar
21		28		27		2
22		20		19		ar
23		45		25		1
24		11		10		1
25		12		6		ar
26		12		10		ar
27		4		13		ar
28		27		26		ar
29		25		17		ar
30		6		7		ar
31		10		9		ar
32		13		14		ar
33		26		46		1
34		26		14		ar
35		19		43		1
36		19		18		ar
37		14		15		1
38		17		18		ar
39		17		16		1
40		7		36		1
41		7		8		ar
42		18		42		1
43		9		8		ar
44		9		38		1
45		41		16		1
46		15		16		1
47		16		40		1
48		8		37		1

