@<TRIPOS>MOLECULE
WYP-2008-CB-168-6H
 44 46 0 0 0
SMALL
MULLIKEN_CHARGES
****
Gaussian 16 #p B3LYP/6-31G* opt
@<TRIPOS>ATOM
1		C		-2.7863		-3.0297		0.4277		C.3		1		UNL1		-0.4472
2		C		-2.2825		-2.2203		-0.7702		C.3		1		UNL1		-0.1365
3		N		-2.7983		-0.8431		-0.8273		N.pl3		1		UNL1		-0.4593
4		C		-4.0455		-0.5749		-1.5441		C.3		1		UNL1		-0.1707
5		C		-5.2935		-0.4557		-0.6569		C.3		1		UNL1		-0.4497
6		C		-2.1234		0.1333		-0.1491		C.ar		1		UNL1		0.7904
7		N		-1.0456		-0.1814		0.5444		N.ar		1		UNL1		-0.5924
8		C		-0.3801		0.8304		1.1745		C.ar		1		UNL1		0.3527
9		C		0.8445		0.3907		1.9610		C.3		1		UNL1		-0.4365
10		C		1.8397		-0.4468		1.1762		C.ar		1		UNL1		0.1457
11		C		1.9030		-1.8084		1.3968		C.ar		1		UNL1		-0.2010
12		C		2.8183		-2.6349		0.7042		C.ar		1		UNL1		-0.1324
13		C		3.6809		-2.0885		-0.2152		C.ar		1		UNL1		-0.1934
14		C		3.6596		-0.6934		-0.4813		C.ar		1		UNL1		0.1432
15		C		4.5469		-0.1097		-1.4249		C.ar		1		UNL1		-0.1973
16		C		4.5230		1.2418		-1.6817		C.ar		1		UNL1		-0.1321
17		C		3.6016		2.0713		-1.0011		C.ar		1		UNL1		-0.1388
18		C		2.7280		1.5373		-0.0791		C.ar		1		UNL1		-0.1910
19		C		2.7252		0.1454		0.2161		C.ar		1		UNL1		0.0742
20		C		-0.7784		2.1437		1.1548		C.ar		1		UNL1		-0.2919
21		C		-1.9568		2.5299		0.4255		C.ar		1		UNL1		0.6103
22		O		-2.4540		3.6426		0.3008		O.2		1		UNL1		-0.5408
23		N		-2.5820		1.4230		-0.2166		N.ar		1		UNL1		-0.7122
24		H		-3.8765		-3.1384		0.4199		H		1		UNL1		0.1429
25		H		-2.4886		-2.5445		1.3616		H		1		UNL1		0.1735
26		H		-2.3482		-4.0345		0.4086		H		1		UNL1		0.1484
27		H		-2.5683		-2.7063		-1.7097		H		1		UNL1		0.1400
28		H		-1.1937		-2.1600		-0.7381		H		1		UNL1		0.1985
29		H		-4.1805		-1.3942		-2.2559		H		1		UNL1		0.1639
30		H		-3.9268		0.3279		-2.1591		H		1		UNL1		0.1561
31		H		-5.4753		-1.3861		-0.1107		H		1		UNL1		0.1656
32		H		-5.1954		0.3495		0.0786		H		1		UNL1		0.1645
33		H		-6.1732		-0.2440		-1.2754		H		1		UNL1		0.1563
34		H		0.4876		-0.2110		2.8063		H		1		UNL1		0.1652
35		H		1.3308		1.2740		2.3894		H		1		UNL1		0.1567
36		H		1.2313		-2.2572		2.1241		H		1		UNL1		0.1233
37		H		2.8369		-3.7021		0.9092		H		1		UNL1		0.1257
38		H		4.3930		-2.7132		-0.7496		H		1		UNL1		0.1260
39		H		5.2505		-0.7568		-1.9440		H		1		UNL1		0.1269
40		H		5.2080		1.6742		-2.4062		H		1		UNL1		0.1279
41		H		3.5809		3.1377		-1.2093		H		1		UNL1		0.1306
42		H		2.0188		2.1894		0.4183		H		1		UNL1		0.1379
43		H		-0.2367		2.9207		1.6806		H		1		UNL1		0.1378
44		H		-3.4055		1.6761		-0.7467		H		1		UNL1		0.3392
@<TRIPOS>BOND
1		40		16		1
2		29		4		1
3		30		4		1
4		39		15		1
5		27		2		1
6		16		15		ar
7		16		17		ar
8		4		3		1
9		4		5		1
10		15		14		ar
11		33		5		1
12		41		17		1
13		17		18		ar
14		3		2		1
15		3		6		1
16		2		28		1
17		2		1		1
18		38		13		1
19		44		23		1
20		5		31		1
21		5		32		1
22		14		13		ar
23		14		19		ar
24		23		6		ar
25		23		21		ar
26		13		12		ar
27		6		7		ar
28		18		19		ar
29		18		42		1
30		19		10		ar
31		22		21		2
32		26		1		1
33		24		1		1
34		21		20		ar
35		1		25		1
36		7		8		ar
37		12		37		1
38		12		11		ar
39		20		8		ar
40		20		43		1
41		8		9		1
42		10		11		ar
43		10		9		1
44		11		36		1
45		9		35		1
46		9		34		1

