@<TRIPOS>MOLECULE
WYP-2009-EJMC-1016-5G
 51 53 0 0 0
SMALL
MULLIKEN_CHARGES
****
Gaussian 16 #p B3LYP/6-31G* opt
@<TRIPOS>ATOM
1		C		8.2085		1.7797		-0.5719		C.3		1		UNL1		-0.2174
2		O		7.6219		0.8988		0.3740		O.3		1		UNL1		-0.5040
3		C		6.2746		0.6990		0.3233		C.ar		1		UNL1		0.3786
4		C		5.7543		-0.1859		1.2808		C.ar		1		UNL1		-0.1712
5		C		4.3936		-0.4542		1.3139		C.ar		1		UNL1		-0.1666
6		C		3.5114		0.1498		0.4026		C.ar		1		UNL1		0.1390
7		C		2.0362		-0.1428		0.4449		C.3		1		UNL1		-0.4914
8		S		1.6793		-1.6413		-0.5933		S.3		1		UNL1		0.1495
9		C		-0.0582		-1.8534		-0.2859		C.ar		1		UNL1		0.3255
10		N		-0.7254		-1.0462		0.4848		N.ar		1		UNL1		-0.5233
11		C		-2.0733		-1.3004		0.6667		C.ar		1		UNL1		0.2397
12		C		-2.7715		-0.3046		1.5736		C.3		1		UNL1		-0.4113
13		C		-3.4324		0.8450		0.8215		C.ar		1		UNL1		0.1842
14		C		-4.7989		1.0929		0.9593		C.ar		1		UNL1		-0.2532
15		C		-5.4188		2.1592		0.2894		C.ar		1		UNL1		0.1880
16		C		-6.9029		2.4012		0.4447		C.3		1		UNL1		-0.5304
17		C		-4.6352		2.9772		-0.5254		C.ar		1		UNL1		-0.2382
18		C		-3.2592		2.7529		-0.6860		C.ar		1		UNL1		0.1905
19		C		-2.4392		3.6472		-1.5877		C.3		1		UNL1		-0.5296
20		C		-2.6720		1.6854		-0.0054		C.ar		1		UNL1		-0.2429
21		C		-2.7416		-2.3467		0.0776		C.ar		1		UNL1		0.0639
22		C		-4.2106		-2.6238		0.2628		C.3		1		UNL1		-0.5487
23		C		-2.0010		-3.2596		-0.7823		C.ar		1		UNL1		0.5702
24		O		-2.4322		-4.2420		-1.3746		O.2		1		UNL1		-0.5279
25		N		-0.6330		-2.9215		-0.9062		N.ar		1		UNL1		-0.6485
26		C		4.0444		1.0259		-0.5466		C.ar		1		UNL1		-0.1749
27		C		5.4115		1.3080		-0.5953		C.ar		1		UNL1		-0.1940
28		H		7.8127		2.7991		-0.4733		H		1		UNL1		0.1539
29		H		8.0516		1.4294		-1.6005		H		1		UNL1		0.1548
30		H		9.2774		1.7853		-0.3519		H		1		UNL1		0.1732
31		H		6.4381		-0.6462		1.9869		H		1		UNL1		0.1437
32		H		4.0045		-1.1424		2.0606		H		1		UNL1		0.1375
33		H		1.6813		-0.3611		1.4537		H		1		UNL1		0.2051
34		H		1.4410		0.6807		0.0463		H		1		UNL1		0.2006
35		H		-2.0157		0.0924		2.2606		H		1		UNL1		0.1701
36		H		-3.5264		-0.8184		2.1773		H		1		UNL1		0.1535
37		H		-5.3955		0.4531		1.6075		H		1		UNL1		0.1149
38		H		-7.2007		2.4067		1.5000		H		1		UNL1		0.1588
39		H		-7.1998		3.3595		0.0068		H		1		UNL1		0.1543
40		H		-7.4895		1.6160		-0.0499		H		1		UNL1		0.1641
41		H		-5.1021		3.8112		-1.0469		H		1		UNL1		0.1120
42		H		-1.3667		3.4716		-1.4566		H		1		UNL1		0.1518
43		H		-2.6343		4.7075		-1.3873		H		1		UNL1		0.1579
44		H		-2.6756		3.4717		-2.6454		H		1		UNL1		0.1639
45		H		-1.6065		1.4978		-0.1129		H		1		UNL1		0.1324
46		H		-4.8206		-1.7481		0.0155		H		1		UNL1		0.1689
47		H		-4.4442		-2.9058		1.2982		H		1		UNL1		0.1571
48		H		-4.5053		-3.4518		-0.3852		H		1		UNL1		0.1928
49		H		-0.0896		-3.5438		-1.4959		H		1		UNL1		0.3524
50		H		3.3829		1.5048		-1.2648		H		1		UNL1		0.1347
51		H		5.7860		1.9974		-1.3431		H		1		UNL1		0.1359
@<TRIPOS>BOND
1		44		19		1
2		29		1		1
3		19		42		1
4		19		43		1
5		19		18		1
6		49		25		1
7		24		23		2
8		51		27		1
9		50		26		1
10		41		17		1
11		25		23		ar
12		25		9		ar
13		23		21		ar
14		18		17		ar
15		18		20		ar
16		27		26		ar
17		27		3		ar
18		8		9		1
19		8		7		1
20		1		28		1
21		1		30		1
22		1		2		1
23		26		6		ar
24		17		15		ar
25		48		22		1
26		9		10		ar
27		45		20		1
28		40		16		1
29		20		13		ar
30		39		16		1
31		46		22		1
32		34		7		1
33		21		22		1
34		21		11		ar
35		22		47		1
36		15		16		1
37		15		14		ar
38		3		2		1
39		3		4		ar
40		6		7		1
41		6		5		ar
42		16		38		1
43		7		33		1
44		10		11		ar
45		11		12		1
46		13		14		ar
47		13		12		1
48		14		37		1
49		4		5		ar
50		4		31		1
51		5		32		1
52		12		36		1
53		12		35		1

