@<TRIPOS>MOLECULE
WZY-2015-EJMC-1-4-7a
 62 65 0 0 0
SMALL
MULLIKEN_CHARGES
****
Gaussian 16 #p B3LYP/6-31G* opt
@<TRIPOS>ATOM
1		C		6.0019		-1.3335		-2.2214		C.3		1		UNL1		-0.5312
2		C		6.8051		-0.5189		-1.2386		C.ar		1		UNL1		0.1724
3		C		8.1647		-0.7547		-1.0306		C.ar		1		UNL1		-0.2283
4		C		8.8958		0.0242		-0.1211		C.ar		1		UNL1		0.1654
5		C		10.2920		-0.2327		0.0804		C.1		1		UNL1		0.2306
6		N		11.4244		-0.4428		0.2457		N.1		1		UNL1		-0.4798
7		C		8.2651		1.0591		0.5857		C.ar		1		UNL1		-0.2283
8		C		6.9070		1.3225		0.4022		C.ar		1		UNL1		0.1722
9		C		6.2105		2.4387		1.1396		C.3		1		UNL1		-0.5311
10		C		6.2037		0.5143		-0.5039		C.ar		1		UNL1		0.2003
11		O		4.8730		0.8202		-0.7645		O.3		1		UNL1		-0.5364
12		C		3.8750		0.2279		-0.0384		C.ar		1		UNL1		0.5325
13		C		4.1142		-0.7013		0.9864		C.ar		1		UNL1		-0.2301
14		C		2.9689		-1.1985		1.6005		C.ar		1		UNL1		0.0581
15		N		1.7257		-0.8428		1.2717		N.ar		1		UNL1		-0.4885
16		C		1.6343		0.0674		0.2778		C.ar		1		UNL1		0.6771
17		N		0.3978		0.4994		-0.0832		N.3		1		UNL1		-0.6495
18		C		-0.8588		-0.0350		0.4262		C.3		1		UNL1		0.0601
19		C		-1.2896		-1.3276		-0.2893		C.3		1		UNL1		-0.2631
20		C		-2.6571		-1.7997		0.2124		C.3		1		UNL1		-0.1283
21		N		-3.6640		-0.7518		0.0387		N.3		1		UNL1		-0.3743
22		C		-4.9967		-1.2221		0.3383		C.3		1		UNL1		-0.2160
23		C		-6.1027		-0.2907		-0.1964		C.2		1		UNL1		0.6146
24		O		-5.8956		0.6095		-0.9935		O.2		1		UNL1		-0.4914
25		N		-7.3423		-0.6110		0.3129		N.am		1		UNL1		-0.7221
26		C		-8.6038		-0.0478		0.0188		C.ar		1		UNL1		0.3572
27		C		-9.7184		-0.5885		0.6793		C.ar		1		UNL1		-0.1978
28		C		-10.9939		-0.0847		0.4405		C.ar		1		UNL1		-0.1331
29		C		-11.1779		0.9655		-0.4607		C.ar		1		UNL1		-0.1273
30		C		-10.0683		1.5009		-1.1158		C.ar		1		UNL1		-0.1442
31		C		-8.7830		1.0085		-0.8877		C.ar		1		UNL1		-0.1624
32		C		-3.3100		0.4610		0.7799		C.3		1		UNL1		-0.1382
33		C		-1.9652		1.0192		0.3061		C.3		1		UNL1		-0.2853
34		N		2.6670		0.6171		-0.4004		N.ar		1		UNL1		-0.5417
35		H		5.2368		-1.9321		-1.7125		H		1		UNL1		0.1748
36		H		5.4785		-0.6868		-2.9335		H		1		UNL1		0.1857
37		H		6.6482		-2.0159		-2.7802		H		1		UNL1		0.1613
38		H		8.6650		-1.5457		-1.5807		H		1		UNL1		0.1554
39		H		8.8425		1.6631		1.2786		H		1		UNL1		0.1555
40		H		5.6889		3.1044		0.4440		H		1		UNL1		0.1859
41		H		5.4564		2.0490		1.8338		H		1		UNL1		0.1754
42		H		6.9273		3.0297		1.7164		H		1		UNL1		0.1613
43		H		5.1076		-1.0160		1.2769		H		1		UNL1		0.1523
44		H		3.0573		-1.9299		2.4030		H		1		UNL1		0.1476
45		H		0.3781		1.1065		-0.8918		H		1		UNL1		0.3329
46		H		-0.6943		-0.2658		1.4843		H		1		UNL1		0.1622
47		H		-1.3492		-1.1404		-1.3690		H		1		UNL1		0.1407
48		H		-0.5394		-2.1078		-0.1207		H		1		UNL1		0.1525
49		H		-2.5726		-2.1125		1.2747		H		1		UNL1		0.1121
50		H		-2.9744		-2.6829		-0.3548		H		1		UNL1		0.1403
51		H		-5.1358		-2.1977		-0.1476		H		1		UNL1		0.1705
52		H		-5.1628		-1.3919		1.4250		H		1		UNL1		0.1213
53		H		-7.3634		-1.3667		0.9859		H		1		UNL1		0.3295
54		H		-9.5830		-1.4082		1.3830		H		1		UNL1		0.1191
55		H		-11.8441		-0.5166		0.9615		H		1		UNL1		0.1310
56		H		-12.1722		1.3601		-0.6488		H		1		UNL1		0.1286
57		H		-10.1972		2.3188		-1.8198		H		1		UNL1		0.1344
58		H		-7.9249		1.4255		-1.3952		H		1		UNL1		0.1851
59		H		-4.0902		1.2065		0.6124		H		1		UNL1		0.1722
60		H		-3.2627		0.2597		1.8713		H		1		UNL1		0.1055
61		H		-2.0690		1.3287		-0.7429		H		1		UNL1		0.1484
62		H		-1.7056		1.9086		0.8922		H		1		UNL1		0.1464
@<TRIPOS>BOND
1		36		1		1
2		37		1		1
3		1		35		1
4		1		2		1
5		57		30		1
6		38		3		1
7		58		31		1
8		47		19		1
9		2		3		ar
10		2		10		ar
11		30		31		ar
12		30		29		ar
13		3		4		ar
14		24		23		2
15		45		17		1
16		31		26		ar
17		11		10		1
18		11		12		1
19		61		33		1
20		56		29		1
21		10		8		ar
22		29		28		ar
23		34		12		ar
24		34		16		ar
25		50		20		1
26		19		48		1
27		19		20		1
28		19		18		1
29		23		25		1
30		23		22		1
31		51		22		1
32		4		5		1
33		4		7		ar
34		17		16		1
35		17		18		1
36		12		13		ar
37		26		25		1
38		26		27		ar
39		21		20		1
40		21		22		1
41		21		32		1
42		5		6		3
43		20		49		1
44		16		15		ar
45		33		18		1
46		33		32		1
47		33		62		1
48		25		53		1
49		22		52		1
50		8		7		ar
51		8		9		1
52		18		46		1
53		28		27		ar
54		28		55		1
55		40		9		1
56		7		39		1
57		59		32		1
58		27		54		1
59		32		60		1
60		13		43		1
61		13		14		ar
62		9		42		1
63		9		41		1
64		15		14		ar
65		14		44		1

