@<TRIPOS>MOLECULE
WZY-2015-BMC-4248-3-3r
 49 51 0 0 0
SMALL
MULLIKEN_CHARGES
****
Gaussian 16 #p B3LYP/6-31G* opt
@<TRIPOS>ATOM
1		C		-6.5787		4.2317		-0.1175		C.3		1		UNL1		-0.5303
2		C		-5.8435		2.9222		0.0482		C.ar		1		UNL1		0.1847
3		C		-4.5607		2.8735		0.6077		C.ar		1		UNL1		-0.1867
4		C		-3.8727		1.6706		0.7337		C.ar		1		UNL1		-0.1956
5		C		-4.4517		0.4675		0.3025		C.ar		1		UNL1		0.3530
6		N		-3.6979		-0.7125		0.4699		N.am		1		UNL1		-0.7294
7		C		-4.0174		-1.9902		0.0979		C.2		1		UNL1		0.6016
8		O		-5.0652		-2.3420		-0.4269		O.2		1		UNL1		-0.4899
9		C		-2.9202		-3.0126		0.4207		C.3		1		UNL1		-0.5456
10		S		-1.5070		-3.0312		-0.7583		S.3		1		UNL1		0.2175
11		C		-0.3787		-1.8575		-0.0596		C.ar		1		UNL1		0.2677
12		N		-0.7428		-1.0931		0.9810		N.ar		1		UNL1		-0.4654
13		C		0.2075		-0.2672		1.4492		C.ar		1		UNL1		0.0605
14		C		1.4767		-0.1726		0.9017		C.ar		1		UNL1		-0.2053
15		C		1.7172		-1.0054		-0.2058		C.ar		1		UNL1		0.5212
16		O		2.8903		-1.0354		-0.8871		O.3		1		UNL1		-0.5189
17		C		3.9452		-0.2019		-0.5101		C.ar		1		UNL1		0.1883
18		C		4.0492		1.0534		-1.1263		C.ar		1		UNL1		0.1739
19		C		3.0075		1.5232		-2.1110		C.3		1		UNL1		-0.5333
20		C		5.1558		1.8394		-0.8002		C.ar		1		UNL1		-0.2274
21		C		6.1227		1.3752		0.1039		C.ar		1		UNL1		0.1680
22		C		7.2517		2.1981		0.4283		C.1		1		UNL1		0.2333
23		N		8.1655		2.8669		0.6944		N.1		1		UNL1		-0.4737
24		C		5.9932		0.1051		0.6852		C.ar		1		UNL1		-0.2273
25		C		4.9001		-0.7087		0.3830		C.ar		1		UNL1		0.1729
26		C		4.7495		-2.0858		0.9800		C.3		1		UNL1		-0.5327
27		N		0.8078		-1.8451		-0.6777		N.ar		1		UNL1		-0.4619
28		C		-5.7386		0.4959		-0.2564		C.ar		1		UNL1		-0.1601
29		C		-6.4090		1.7123		-0.3731		C.ar		1		UNL1		-0.1975
30		H		-6.2437		4.9754		0.6137		H		1		UNL1		0.1527
31		H		-7.6598		4.1029		0.0052		H		1		UNL1		0.1576
32		H		-6.4163		4.6612		-1.1156		H		1		UNL1		0.1634
33		H		-4.0898		3.7914		0.9531		H		1		UNL1		0.1184
34		H		-2.8777		1.6608		1.1742		H		1		UNL1		0.1151
35		H		-2.7642		-0.6018		0.8637		H		1		UNL1		0.3774
36		H		-3.3697		-4.0027		0.3291		H		1		UNL1		0.2161
37		H		-2.5193		-2.8856		1.4297		H		1		UNL1		0.2079
38		H		-0.0731		0.3493		2.3007		H		1		UNL1		0.1673
39		H		2.2226		0.5046		1.2971		H		1		UNL1		0.1712
40		H		2.8447		0.7792		-2.8978		H		1		UNL1		0.1914
41		H		2.0389		1.6906		-1.6242		H		1		UNL1		0.1725
42		H		3.3131		2.4625		-2.5793		H		1		UNL1		0.1680
43		H		5.2740		2.8179		-1.2549		H		1		UNL1		0.1609
44		H		6.7549		-0.2494		1.3724		H		1		UNL1		0.1606
45		H		5.6383		-2.3575		1.5557		H		1		UNL1		0.1676
46		H		3.8843		-2.1415		1.6519		H		1		UNL1		0.1715
47		H		4.5967		-2.8390		0.1999		H		1		UNL1		0.1910
48		H		-6.1953		-0.4262		-0.5874		H		1		UNL1		0.1832
49		H		-7.4071		1.7147		-0.8061		H		1		UNL1		0.1248
@<TRIPOS>BOND
1		40		19		1
2		42		19		1
3		19		41		1
4		19		18		1
5		43		20		1
6		18		20		ar
7		18		17		ar
8		32		1		1
9		16		17		1
10		16		15		1
11		49		29		1
12		20		21		ar
13		10		11		1
14		10		9		1
15		27		15		ar
16		27		11		ar
17		48		28		1
18		17		25		ar
19		8		7		2
20		29		28		ar
21		29		2		ar
22		28		5		ar
23		15		14		ar
24		1		31		1
25		1		2		1
26		1		30		1
27		11		12		ar
28		2		3		ar
29		7		9		1
30		7		6		1
31		21		22		1
32		21		24		ar
33		47		26		1
34		5		6		1
35		5		4		ar
36		36		9		1
37		25		24		ar
38		25		26		1
39		9		37		1
40		22		23		3
41		6		35		1
42		3		4		ar
43		3		33		1
44		24		44		1
45		4		34		1
46		14		39		1
47		14		13		ar
48		26		45		1
49		26		46		1
50		12		13		ar
51		13		38		1

