@<TRIPOS>MOLECULE
WZY-2015-EJMC-1-4-7z
 70 73 0 0 0
SMALL
MULLIKEN_CHARGES
****
Gaussian 16 #p B3LYP/6-31G* opt
@<TRIPOS>ATOM
1		C		-6.1792		2.4708		-1.2734		C.3		1		UNL1		-0.5658
2		C		-6.7786		1.1754		-0.7756		C.ar		1		UNL1		0.1511
3		C		-8.1574		1.0622		-0.6169		C.ar		1		UNL1		-0.2104
4		C		-8.7287		-0.1275		-0.1638		C.ar		1		UNL1		-0.1274
5		S		-10.5012		-0.2304		0.0272		S.O2		1		UNL1		1.1636
6		N		-10.7741		0.4689		1.5566		N.3		1		UNL1		-0.8145
7		O		-11.1250		0.6860		-0.9331		O.2		1		UNL1		-0.5460
8		O		-10.8577		-1.6520		0.0912		O.2		1		UNL1		-0.5279
9		C		-7.9323		-1.2322		0.1269		C.ar		1		UNL1		-0.1649
10		C		-6.5513		-1.1435		-0.0219		C.ar		1		UNL1		-0.1555
11		C		-5.9678		0.0536		-0.4666		C.ar		1		UNL1		0.2997
12		N		-4.5773		0.1911		-0.6327		N.am		1		UNL1		-0.7368
13		C		-3.5670		-0.7258		-0.3920		C.2		1		UNL1		0.6278
14		O		-3.7474		-1.8523		0.0332		O.2		1		UNL1		-0.4784
15		C		-2.1749		-0.1419		-0.7118		C.3		1		UNL1		-0.2343
16		N		-1.1099		-1.0976		-0.5116		N.3		1		UNL1		-0.3529
17		C		0.1100		-0.8228		-1.2749		C.3		1		UNL1		-0.1574
18		C		0.9876		0.2949		-0.6786		C.3		1		UNL1		-0.2698
19		C		1.3308		-0.0235		0.7900		C.3		1		UNL1		0.0736
20		N		2.0978		1.0343		1.4350		N.3		1		UNL1		-0.6518
21		C		3.4387		1.2187		1.3145		C.ar		1		UNL1		0.6750
22		N		3.9393		2.3217		1.9212		N.ar		1		UNL1		-0.4892
23		C		5.2575		2.4720		1.8193		C.ar		1		UNL1		0.0603
24		C		6.0983		1.5847		1.1468		C.ar		1		UNL1		-0.2302
25		C		5.4490		0.4926		0.5590		C.ar		1		UNL1		0.5297
26		O		6.0983		-0.4807		-0.1500		O.3		1		UNL1		-0.5368
27		C		7.4795		-0.4284		-0.3051		C.ar		1		UNL1		0.1999
28		C		7.9962		0.1984		-1.4490		C.ar		1		UNL1		0.1722
29		C		7.0795		0.8743		-2.4377		C.3		1		UNL1		-0.5309
30		C		9.3786		0.1649		-1.6368		C.ar		1		UNL1		-0.2282
31		C		10.2116		-0.4810		-0.7110		C.ar		1		UNL1		0.1658
32		C		11.6300		-0.5051		-0.9199		C.1		1		UNL1		0.2310
33		N		12.7811		-0.5225		-1.0884		N.1		1		UNL1		-0.4787
34		C		9.6587		-1.1102		0.4144		C.ar		1		UNL1		-0.2281
35		C		8.2805		-1.0963		0.6335		C.ar		1		UNL1		0.1731
36		C		7.6625		-1.7786		1.8282		C.3		1		UNL1		-0.5316
37		N		4.1409		0.2979		0.6260		N.ar		1		UNL1		-0.5405
38		C		0.0492		-0.3081		1.5861		C.3		1		UNL1		-0.2955
39		C		-0.7961		-1.3951		0.8903		C.3		1		UNL1		-0.1613
40		H		-6.9625		3.2102		-1.4584		H		1		UNL1		0.1808
41		H		-5.4841		2.9130		-0.5458		H		1		UNL1		0.1638
42		H		-5.6327		2.3391		-2.2180		H		1		UNL1		0.1658
43		H		-8.7978		1.9035		-0.8622		H		1		UNL1		0.1678
44		H		-11.5698		1.1000		1.4750		H		1		UNL1		0.3557
45		H		-10.9679		-0.2629		2.2383		H		1		UNL1		0.3511
46		H		-8.3892		-2.1605		0.4521		H		1		UNL1		0.1790
47		H		-5.9169		-1.9904		0.1961		H		1		UNL1		0.1982
48		H		-4.2720		1.0902		-0.9788		H		1		UNL1		0.3385
49		H		-2.0717		0.8017		-0.1363		H		1		UNL1		0.1354
50		H		-2.1762		0.1524		-1.7697		H		1		UNL1		0.1658
51		H		0.6926		-1.7546		-1.3053		H		1		UNL1		0.1513
52		H		-0.1648		-0.5901		-2.3101		H		1		UNL1		0.1405
53		H		1.9129		0.4000		-1.2563		H		1		UNL1		0.1568
54		H		0.4615		1.2593		-0.7264		H		1		UNL1		0.1225
55		H		1.9627		-0.9192		0.8025		H		1		UNL1		0.1651
56		H		1.6084		1.7900		1.8949		H		1		UNL1		0.3298
57		H		5.6754		3.3547		2.3020		H		1		UNL1		0.1502
58		H		7.1671		1.7393		1.0833		H		1		UNL1		0.1533
59		H		6.2910		0.1922		-2.7730		H		1		UNL1		0.1837
60		H		6.5815		1.7431		-1.9908		H		1		UNL1		0.1745
61		H		7.6377		1.2179		-3.3128		H		1		UNL1		0.1621
62		H		9.8157		0.6391		-2.5101		H		1		UNL1		0.1561
63		H		10.3112		-1.6169		1.1186		H		1		UNL1		0.1565
64		H		8.4161		-2.3393		2.3880		H		1		UNL1		0.1624
65		H		6.8707		-2.4698		1.5207		H		1		UNL1		0.1850
66		H		7.2049		-1.0522		2.5105		H		1		UNL1		0.1757
67		H		0.3002		-0.6261		2.6055		H		1		UNL1		0.1511
68		H		-0.5358		0.6202		1.6790		H		1		UNL1		0.1235
69		H		-0.2399		-2.3424		0.9053		H		1		UNL1		0.1483
70		H		-1.7292		-1.5740		1.4282		H		1		UNL1		0.1717
@<TRIPOS>BOND
1		61		29		1
2		59		29		1
3		62		30		1
4		29		60		1
5		29		28		1
6		52		17		1
7		42		1		1
8		50		15		1
9		30		28		ar
10		30		31		ar
11		40		1		1
12		28		27		ar
13		51		17		1
14		17		18		1
15		17		16		1
16		1		2		1
17		1		41		1
18		53		18		1
19		33		32		3
20		48		12		1
21		7		5		2
22		32		31		1
23		43		3		1
24		2		3		ar
25		2		11		ar
26		54		18		1
27		15		16		1
28		15		13		1
29		15		49		1
30		31		34		ar
31		18		19		1
32		12		11		1
33		12		13		1
34		3		4		ar
35		16		39		1
36		11		10		ar
37		13		14		2
38		27		26		1
39		27		35		ar
40		4		5		1
41		4		9		ar
42		26		25		1
43		10		9		ar
44		10		47		1
45		5		8		2
46		5		6		1
47		9		46		1
48		34		35		ar
49		34		63		1
50		25		37		ar
51		25		24		ar
52		37		21		ar
53		35		36		1
54		19		55		1
55		19		20		1
56		19		38		1
57		39		69		1
58		39		70		1
59		39		38		1
60		58		24		1
61		24		23		ar
62		21		20		1
63		21		22		ar
64		20		56		1
65		44		6		1
66		65		36		1
67		6		45		1
68		38		68		1
69		38		67		1
70		23		22		ar
71		23		57		1
72		36		64		1
73		36		66		1

