@<TRIPOS>MOLECULE
WZY-2015-BMC-4248-3-3t
 50 52 0 0 0
SMALL
MULLIKEN_CHARGES
****
Gaussian 16 #p B3LYP/6-31G* opt
@<TRIPOS>ATOM
1		C		-6.4002		-3.9013		-1.2215		C.3		1		UNL1		-0.2137
2		O		-5.8402		-3.4840		0.0114		O.3		1		UNL1		-0.5088
3		C		-5.1484		-2.3045		0.0377		C.ar		1		UNL1		0.3802
4		C		-4.6251		-1.9272		1.2820		C.ar		1		UNL1		-0.1904
5		C		-3.9045		-0.7496		1.4329		C.ar		1		UNL1		-0.1646
6		C		-3.6904		0.0850		0.3220		C.ar		1		UNL1		0.3529
7		N		-2.9681		1.2989		0.3869		N.am		1		UNL1		-0.7243
8		C		-2.3646		1.8770		1.4653		C.2		1		UNL1		0.6264
9		O		-2.3641		1.4315		2.6047		O.2		1		UNL1		-0.4987
10		C		-1.6803		3.2331		1.2158		C.3		1		UNL1		-0.5324
11		S		-1.3364		3.7629		-0.5037		S.3		1		UNL1		0.1561
12		C		0.0850		2.7666		-0.9090		C.ar		1		UNL1		0.2479
13		N		0.5202		2.9385		-2.1633		N.ar		1		UNL1		-0.4204
14		C		1.5877		2.2042		-2.4935		C.ar		1		UNL1		0.0494
15		C		2.2151		1.3204		-1.6199		C.ar		1		UNL1		-0.2025
16		C		1.6551		1.2425		-0.3383		C.ar		1		UNL1		0.5248
17		O		2.1274		0.4456		0.6544		O.3		1		UNL1		-0.5207
18		C		3.2143		-0.3976		0.4200		C.ar		1		UNL1		0.1908
19		C		2.9542		-1.7075		-0.0078		C.ar		1		UNL1		0.1744
20		C		1.5441		-2.1680		-0.2818		C.3		1		UNL1		-0.5337
21		C		4.0467		-2.5635		-0.1571		C.ar		1		UNL1		-0.2275
22		C		5.3480		-2.1198		0.1213		C.ar		1		UNL1		0.1677
23		C		6.4582		-3.0131		-0.0407		C.1		1		UNL1		0.2327
24		N		7.3593		-3.7364		-0.1758		N.1		1		UNL1		-0.4755
25		C		5.5658		-0.8072		0.5658		C.ar		1		UNL1		-0.2276
26		C		4.4977		0.0768		0.7269		C.ar		1		UNL1		0.1728
27		C		4.7046		1.4862		1.2231		C.3		1		UNL1		-0.5327
28		N		0.5939		1.9605		0.0211		N.ar		1		UNL1		-0.4582
29		C		-4.2129		-0.2933		-0.9190		C.ar		1		UNL1		-0.2095
30		C		-4.9377		-1.4764		-1.0695		C.ar		1		UNL1		-0.2002
31		H		-7.1324		-3.1752		-1.6005		H		1		UNL1		0.1505
32		H		-5.6267		-4.0618		-1.9850		H		1		UNL1		0.1484
33		H		-6.9051		-4.8475		-1.0177		H		1		UNL1		0.1700
34		H		-4.7974		-2.5786		2.1333		H		1		UNL1		0.1423
35		H		-3.5059		-0.4643		2.3965		H		1		UNL1		0.1877
36		H		-2.8762		1.8018		-0.4884		H		1		UNL1		0.3544
37		H		-2.3236		4.0180		1.6285		H		1		UNL1		0.2074
38		H		-0.7494		3.2264		1.7836		H		1		UNL1		0.2302
39		H		1.9594		2.3287		-3.5089		H		1		UNL1		0.1652
40		H		3.0763		0.7354		-1.9163		H		1		UNL1		0.1677
41		H		1.1170		-1.6585		-1.1542		H		1		UNL1		0.1717
42		H		0.8865		-1.9526		0.5667		H		1		UNL1		0.1960
43		H		1.5190		-3.2434		-0.4769		H		1		UNL1		0.1664
44		H		3.8886		-3.5857		-0.4861		H		1		UNL1		0.1597
45		H		6.5755		-0.4790		0.7918		H		1		UNL1		0.1593
46		H		4.0675		1.6961		2.0889		H		1		UNL1		0.1895
47		H		4.4521		2.2254		0.4533		H		1		UNL1		0.1720
48		H		5.7467		1.6460		1.5124		H		1		UNL1		0.1664
49		H		-4.0568		0.3434		-1.7876		H		1		UNL1		0.1283
50		H		-5.3280		-1.7338		-2.0473		H		1		UNL1		0.1323
@<TRIPOS>BOND
1		39		14		1
2		14		13		ar
3		14		15		ar
4		13		12		ar
5		50		30		1
6		32		1		1
7		40		15		1
8		49		29		1
9		15		16		ar
10		31		1		1
11		1		33		1
12		1		2		1
13		41		20		1
14		30		29		ar
15		30		3		ar
16		29		6		ar
17		12		11		1
18		12		28		ar
19		11		10		1
20		36		7		1
21		44		21		1
22		43		20		1
23		16		28		ar
24		16		17		1
25		20		19		1
26		20		42		1
27		24		23		3
28		21		19		ar
29		21		22		ar
30		23		22		1
31		19		18		ar
32		2		3		1
33		3		4		ar
34		22		25		ar
35		6		7		1
36		6		5		ar
37		7		8		1
38		18		17		1
39		18		26		ar
40		47		27		1
41		25		26		ar
42		25		45		1
43		26		27		1
44		10		8		1
45		10		37		1
46		10		38		1
47		27		48		1
48		27		46		1
49		4		5		ar
50		4		34		1
51		5		35		1
52		8		9		2

