@<TRIPOS>MOLECULE
WZY-2015-BMC-4248-3-3o
 47 49 0 0 0
SMALL
MULLIKEN_CHARGES
****
Gaussian 16 #p B3LYP/6-31G* opt
@<TRIPOS>ATOM
1		C		-1.8216		-1.6196		-1.6402		C.3		1		UNL1		-0.5505
2		C		-2.9284		-1.2805		-0.6728		C.ar		1		UNL1		0.1777
3		C		-4.1538		-1.9497		-0.7070		C.ar		1		UNL1		-0.2276
4		C		-5.1716		-1.6329		0.2041		C.ar		1		UNL1		0.1694
5		C		-6.4228		-2.3321		0.1507		C.1		1		UNL1		0.2340
6		N		-7.4390		-2.8963		0.1058		N.1		1		UNL1		-0.4719
7		C		-4.9669		-0.6386		1.1721		C.ar		1		UNL1		-0.2268
8		C		-3.7562		0.0523		1.2370		C.ar		1		UNL1		0.1741
9		C		-3.5084		1.1150		2.2786		C.3		1		UNL1		-0.5312
10		C		-2.7684		-0.2833		0.3000		C.ar		1		UNL1		0.1868
11		O		-1.5259		0.3495		0.4194		O.3		1		UNL1		-0.5280
12		C		-1.2534		1.4574		-0.3117		C.ar		1		UNL1		0.5439
13		C		-2.1193		2.0071		-1.2631		C.ar		1		UNL1		-0.2047
14		C		-1.6398		3.1298		-1.9324		C.ar		1		UNL1		0.0538
15		N		-0.4542		3.6899		-1.6788		N.ar		1		UNL1		-0.4186
16		C		0.2714		3.0896		-0.7283		C.ar		1		UNL1		0.2636
17		S		1.8082		3.9160		-0.4072		S.3		1		UNL1		0.2245
18		C		2.4007		3.0900		1.1248		C.3		1		UNL1		-0.5471
19		C		3.3125		1.8886		0.8801		C.2		1		UNL1		0.6112
20		O		4.5275		1.9932		0.9379		O.2		1		UNL1		-0.4777
21		N		2.6359		0.7177		0.6145		N.am		1		UNL1		-0.7400
22		C		3.1940		-0.5378		0.3646		C.ar		1		UNL1		0.3292
23		C		4.5698		-0.8124		0.2731		C.ar		1		UNL1		-0.1718
24		C		5.0119		-2.1073		0.0211		C.ar		1		UNL1		-0.1473
25		C		4.1025		-3.1635		-0.1458		C.ar		1		UNL1		0.1347
26		C		4.5659		-4.4926		-0.4066		C.1		1		UNL1		0.2331
27		N		4.9414		-5.5733		-0.6195		N.1		1		UNL1		-0.4760
28		C		2.7230		-2.9065		-0.0547		C.ar		1		UNL1		-0.2150
29		C		2.3087		-1.6167		0.1974		C.ar		1		UNL1		0.3100
30		F		0.9787		-1.3548		0.2937		F		1		UNL1		-0.2900
31		N		-0.0565		1.9861		-0.0452		N.ar		1		UNL1		-0.5153
32		H		-2.0629		-2.5286		-2.1976		H		1		UNL1		0.1687
33		H		-1.6662		-0.8139		-2.3687		H		1		UNL1		0.1715
34		H		-0.8724		-1.7686		-1.1187		H		1		UNL1		0.1927
35		H		-4.3192		-2.7292		-1.4440		H		1		UNL1		0.1623
36		H		-5.7573		-0.4088		1.8796		H		1		UNL1		0.1617
37		H		-2.5970		0.9048		2.8483		H		1		UNL1		0.1853
38		H		-3.3804		2.1040		1.8219		H		1		UNL1		0.1721
39		H		-4.3470		1.1750		2.9772		H		1		UNL1		0.1691
40		H		-3.0910		1.5817		-1.4774		H		1		UNL1		0.1725
41		H		-2.2396		3.6065		-2.7052		H		1		UNL1		0.1715
42		H		1.5310		2.8349		1.7353		H		1		UNL1		0.2113
43		H		3.0002		3.8439		1.6379		H		1		UNL1		0.2208
44		H		1.6194		0.7888		0.5581		H		1		UNL1		0.3890
45		H		5.2720		-0.0019		0.4037		H		1		UNL1		0.2065
46		H		6.0763		-2.3044		-0.0485		H		1		UNL1		0.1659
47		H		1.9893		-3.6956		-0.1722		H		1		UNL1		0.1727
@<TRIPOS>BOND
1		41		14		1
2		33		1		1
3		32		1		1
4		14		15		ar
5		14		13		ar
6		15		16		ar
7		1		34		1
8		1		2		1
9		40		13		1
10		35		3		1
11		13		12		ar
12		16		17		1
13		16		31		ar
14		3		2		ar
15		3		4		ar
16		2		10		ar
17		27		26		3
18		17		18		1
19		26		25		1
20		12		31		ar
21		12		11		1
22		47		28		1
23		25		28		ar
24		25		24		ar
25		28		29		ar
26		46		24		1
27		24		23		ar
28		6		5		3
29		5		4		1
30		29		30		1
31		29		22		ar
32		4		7		ar
33		23		22		ar
34		23		45		1
35		10		11		1
36		10		8		ar
37		22		21		1
38		44		21		1
39		21		19		1
40		19		20		2
41		19		18		1
42		18		43		1
43		18		42		1
44		7		8		ar
45		7		36		1
46		8		9		1
47		38		9		1
48		9		37		1
49		9		39		1

