@<TRIPOS>MOLECULE
WZY-2015-EJMC-1-4-7k
 62 65 0 0 0
SMALL
MULLIKEN_CHARGES
****
Gaussian 16 #p B3LYP/6-31G* opt
@<TRIPOS>ATOM
1		C		-6.6383		-1.2059		1.9354		C.3		1		UNL1		-0.5313
2		C		-7.0576		-0.1951		0.8975		C.ar		1		UNL1		0.1724
3		C		-8.1244		0.6780		1.1147		C.ar		1		UNL1		-0.2281
4		C		-8.5061		1.6013		0.1299		C.ar		1		UNL1		0.1657
5		C		-9.6051		2.4905		0.3701		C.1		1		UNL1		0.2309
6		N		-10.4958		3.2131		0.5657		N.1		1		UNL1		-0.4792
7		C		-7.8199		1.6508		-1.0928		C.ar		1		UNL1		-0.2281
8		C		-6.7484		0.7925		-1.3437		C.ar		1		UNL1		0.1726
9		C		-6.0050		0.8175		-2.6557		C.3		1		UNL1		-0.5314
10		C		-6.3853		-0.1081		-0.3309		C.ar		1		UNL1		0.1994
11		O		-5.3796		-1.0305		-0.5985		O.3		1		UNL1		-0.5364
12		C		-4.0781		-0.7385		-0.2936		C.ar		1		UNL1		0.5338
13		C		-3.6759		0.4714		0.2948		C.ar		1		UNL1		-0.2302
14		C		-2.3097		0.5788		0.5301		C.ar		1		UNL1		0.0565
15		N		-1.4203		-0.3713		0.2313		N.ar		1		UNL1		-0.4820
16		C		-1.9341		-1.4847		-0.3317		C.ar		1		UNL1		0.6736
17		N		-1.0914		-2.4933		-0.6767		N.3		1		UNL1		-0.6484
18		C		0.3527		-2.5808		-0.4448		C.3		1		UNL1		0.0703
19		C		0.7246		-2.6576		1.0514		C.3		1		UNL1		-0.2931
20		C		2.2456		-2.5864		1.2003		C.3		1		UNL1		-0.1204
21		N		2.7537		-1.2669		0.8089		N.3		1		UNL1		-0.3725
22		C		4.1610		-1.2953		0.5104		C.3		1		UNL1		-0.2284
23		C		4.8366		0.0853		0.6126		C.2		1		UNL1		0.6199
24		O		4.2841		1.0785		1.0518		O.2		1		UNL1		-0.4849
25		N		6.1427		0.0528		0.1572		N.am		1		UNL1		-0.7399
26		C		7.0950		1.0820		0.1364		C.ar		1		UNL1		0.3729
27		C		6.8310		2.3855		0.5939		C.ar		1		UNL1		-0.1578
28		C		7.8210		3.3637		0.5469		C.ar		1		UNL1		-0.1429
29		C		9.0919		3.0788		0.0477		C.ar		1		UNL1		-0.1235
30		C		9.3727		1.7928		-0.4109		C.ar		1		UNL1		-0.1379
31		C		8.3849		0.8150		-0.3643		C.ar		1		UNL1		-0.1471
32		CL		8.7822		-0.8056		-0.9565		Cl		1		UNL1		-0.0277
33		C		1.9056		-0.5524		-0.1645		C.3		1		UNL1		-0.1483
34		C		1.1919		-1.4786		-1.1623		C.3		1		UNL1		-0.2849
35		N		-3.2399		-1.7085		-0.6068		N.ar		1		UNL1		-0.5463
36		H		-7.3341		-1.2079		2.7790		H		1		UNL1		0.1619
37		H		-5.6362		-0.9876		2.3236		H		1		UNL1		0.1754
38		H		-6.6025		-2.2146		1.5104		H		1		UNL1		0.1849
39		H		-8.6690		0.6407		2.0531		H		1		UNL1		0.1560
40		H		-8.1304		2.3616		-1.8523		H		1		UNL1		0.1560
41		H		-5.9631		-0.1811		-3.1034		H		1		UNL1		0.1851
42		H		-4.9689		1.1506		-2.5213		H		1		UNL1		0.1754
43		H		-6.4887		1.4965		-3.3633		H		1		UNL1		0.1620
44		H		-4.3691		1.2618		0.5497		H		1		UNL1		0.1545
45		H		-1.9045		1.4811		0.9856		H		1		UNL1		0.1544
46		H		-1.5628		-3.2986		-1.0626		H		1		UNL1		0.3369
47		H		0.6249		-3.5445		-0.8902		H		1		UNL1		0.1305
48		H		0.2565		-1.8327		1.5962		H		1		UNL1		0.1820
49		H		0.3505		-3.5945		1.4796		H		1		UNL1		0.1350
50		H		2.6891		-3.3975		0.5849		H		1		UNL1		0.1030
51		H		2.5413		-2.7909		2.2386		H		1		UNL1		0.1439
52		H		4.6548		-1.9441		1.2481		H		1		UNL1		0.1718
53		H		4.4045		-1.7337		-0.4834		H		1		UNL1		0.1257
54		H		6.4709		-0.8351		-0.2024		H		1		UNL1		0.3467
55		H		5.8450		2.6031		0.9792		H		1		UNL1		0.1959
56		H		7.5889		4.3618		0.9074		H		1		UNL1		0.1404
57		H		9.8609		3.8445		0.0126		H		1		UNL1		0.1374
58		H		10.3511		1.5393		-0.8050		H		1		UNL1		0.1543
59		H		1.1509		0.0242		0.3769		H		1		UNL1		0.1825
60		H		2.5266		0.1714		-0.6982		H		1		UNL1		0.1436
61		H		1.9321		-1.9642		-1.8117		H		1		UNL1		0.1316
62		H		0.5453		-0.8829		-1.8137		H		1		UNL1		0.1555
@<TRIPOS>BOND
1		43		9		1
2		41		9		1
3		9		42		1
4		9		8		1
5		40		7		1
6		62		34		1
7		61		34		1
8		8		7		ar
9		8		10		ar
10		34		18		1
11		34		33		1
12		7		4		ar
13		46		17		1
14		32		31		1
15		47		18		1
16		58		30		1
17		60		33		1
18		17		18		1
19		17		16		1
20		35		16		ar
21		35		12		ar
22		11		10		1
23		11		12		1
24		53		22		1
25		18		19		1
26		30		31		ar
27		30		29		ar
28		31		26		ar
29		16		15		ar
30		10		2		ar
31		12		13		ar
32		54		25		1
33		33		59		1
34		33		21		1
35		57		29		1
36		29		28		ar
37		4		5		1
38		4		3		ar
39		26		25		1
40		26		27		ar
41		25		23		1
42		15		14		ar
43		13		14		ar
44		13		44		1
45		5		6		3
46		22		23		1
47		22		21		1
48		22		52		1
49		14		45		1
50		28		27		ar
51		28		56		1
52		50		20		1
53		27		55		1
54		23		24		2
55		21		20		1
56		2		3		ar
57		2		1		1
58		19		20		1
59		19		49		1
60		19		48		1
61		3		39		1
62		20		51		1
63		38		1		1
64		1		37		1
65		1		36		1

