@<TRIPOS>MOLECULE
WZY-2015-EJMC-1-4-7m
 62 65 0 0 0
SMALL
MULLIKEN_CHARGES
****
Gaussian 16 #p B3LYP/6-31G* opt
@<TRIPOS>ATOM
1		C		5.9040		-1.4403		-2.4194		C.3		1		UNL1		-0.5316
2		C		6.7410		-1.1297		-1.2038		C.ar		1		UNL1		0.1728
3		C		8.1205		-0.9390		-1.2941		C.ar		1		UNL1		-0.2280
4		C		8.8822		-0.6649		-0.1483		C.ar		1		UNL1		0.1661
5		C		10.2987		-0.4711		-0.2601		C.1		1		UNL1		0.2314
6		N		11.4474		-0.3114		-0.3511		N.1		1		UNL1		-0.4778
7		C		8.2622		-0.5879		1.1078		C.ar		1		UNL1		-0.2281
8		C		6.8848		-0.7732		1.2350		C.ar		1		UNL1		0.1726
9		C		6.1985		-0.7099		2.5765		C.3		1		UNL1		-0.5314
10		C		6.1528		-1.0303		0.0661		C.ar		1		UNL1		0.1977
11		O		4.7940		-1.3049		0.1866		O.3		1		UNL1		-0.5350
12		C		3.8770		-0.2960		0.0906		C.ar		1		UNL1		0.5349
13		C		4.2254		1.0472		-0.1263		C.ar		1		UNL1		-0.2283
14		C		3.1496		1.9247		-0.1930		C.ar		1		UNL1		0.0553
15		N		1.8711		1.5577		-0.0678		N.ar		1		UNL1		-0.4864
16		C		1.6704		0.2385		0.1367		C.ar		1		UNL1		0.6770
17		N		0.3973		-0.2210		0.2761		N.3		1		UNL1		-0.6513
18		C		-0.8473		0.5456		0.2228		C.3		1		UNL1		0.0721
19		C		-1.0979		1.2275		-1.1327		C.3		1		UNL1		-0.3090
20		C		-2.5218		1.8202		-1.1896		C.3		1		UNL1		-0.1235
21		N		-3.0301		2.1695		0.1539		N.3		1		UNL1		-0.4422
22		C		-4.2214		3.0071		0.0760		C.3		1		UNL1		-0.2109
23		C		-5.5121		2.2271		-0.2289		C.2		1		UNL1		0.5830
24		O		-6.4859		2.7802		-0.7205		O.2		1		UNL1		-0.5044
25		N		-5.4451		0.9163		0.1650		N.am		1		UNL1		-0.7151
26		C		-6.4297		-0.0840		0.1005		C.ar		1		UNL1		0.3613
27		C		-6.0922		-1.3637		0.5687		C.ar		1		UNL1		-0.1894
28		C		-7.0164		-2.4032		0.5361		C.ar		1		UNL1		-0.1355
29		C		-8.2930		-2.1641		0.0302		C.ar		1		UNL1		-0.0642
30		CL		-9.4690		-3.4734		-0.0158		Cl		1		UNL1		-0.0315
31		C		-8.6448		-0.8997		-0.4379		C.ar		1		UNL1		-0.1465
32		C		-7.7199		0.1426		-0.4052		C.ar		1		UNL1		-0.1578
33		C		-1.9587		2.7027		1.0067		C.3		1		UNL1		-0.1350
34		C		-0.9684		1.5796		1.3708		C.3		1		UNL1		-0.2691
35		N		2.6306		-0.7097		0.2231		N.ar		1		UNL1		-0.5448
36		H		5.2032		-0.6264		-2.6409		H		1		UNL1		0.1743
37		H		6.5367		-1.5890		-3.2987		H		1		UNL1		0.1632
38		H		5.3047		-2.3437		-2.2643		H		1		UNL1		0.1857
39		H		8.6121		-1.0079		-2.2595		H		1		UNL1		0.1570
40		H		8.8627		-0.3868		1.9895		H		1		UNL1		0.1569
41		H		6.9305		-0.6106		3.3827		H		1		UNL1		0.1630
42		H		5.6018		-1.6104		2.7563		H		1		UNL1		0.1856
43		H		5.5131		0.1442		2.6350		H		1		UNL1		0.1740
44		H		5.2491		1.3802		-0.2339		H		1		UNL1		0.1560
45		H		3.3239		2.9871		-0.3577		H		1		UNL1		0.1509
46		H		0.3420		-1.2196		0.4145		H		1		UNL1		0.3385
47		H		-1.6314		-0.2069		0.3605		H		1		UNL1		0.1340
48		H		-0.9652		0.5065		-1.9465		H		1		UNL1		0.1469
49		H		-0.3461		2.0087		-1.2710		H		1		UNL1		0.1812
50		H		-2.5202		2.7098		-1.8449		H		1		UNL1		0.1339
51		H		-3.2209		1.1023		-1.6358		H		1		UNL1		0.1497
52		H		-4.1493		3.8083		-0.6772		H		1		UNL1		0.1603
53		H		-4.3771		3.4944		1.0467		H		1		UNL1		0.1735
54		H		-4.5306		0.6634		0.5325		H		1		UNL1		0.3465
55		H		-5.0961		-1.5482		0.9651		H		1		UNL1		0.1278
56		H		-6.7480		-3.3890		0.9006		H		1		UNL1		0.1534
57		H		-9.6416		-0.7249		-0.8290		H		1		UNL1		0.1579
58		H		-7.9832		1.1274		-0.7659		H		1		UNL1		0.1936
59		H		-2.4097		3.1131		1.9157		H		1		UNL1		0.1460
60		H		-1.4297		3.5364		0.5113		H		1		UNL1		0.1355
61		H		-1.2949		1.0646		2.2816		H		1		UNL1		0.1357
62		H		0.0129		2.0175		1.5673		H		1		UNL1		0.1713
@<TRIPOS>BOND
1		37		1		1
2		36		1		1
3		1		38		1
4		1		2		1
5		39		3		1
6		48		19		1
7		50		20		1
8		51		20		1
9		3		2		ar
10		3		4		ar
11		49		19		1
12		2		10		ar
13		20		19		1
14		20		21		1
15		19		18		1
16		57		31		1
17		58		32		1
18		24		23		2
19		52		22		1
20		31		32		ar
21		31		29		ar
22		32		26		ar
23		45		14		1
24		6		5		3
25		5		4		1
26		44		13		1
27		23		22		1
28		23		25		1
29		14		13		ar
30		14		15		ar
31		4		7		ar
32		13		12		ar
33		15		16		ar
34		30		29		1
35		29		28		ar
36		10		11		1
37		10		8		ar
38		22		21		1
39		22		53		1
40		12		11		1
41		12		35		ar
42		26		25		1
43		26		27		ar
44		16		35		ar
45		16		17		1
46		21		33		1
47		25		54		1
48		18		17		1
49		18		47		1
50		18		34		1
51		17		46		1
52		60		33		1
53		28		27		ar
54		28		56		1
55		27		55		1
56		33		34		1
57		33		59		1
58		7		8		ar
59		7		40		1
60		8		9		1
61		34		62		1
62		34		61		1
63		9		43		1
64		9		42		1
65		9		41		1

