@<TRIPOS>MOLECULE
WZY-2015-EJMC-1-4-7p
 62 65 0 0 0
SMALL
MULLIKEN_CHARGES
****
Gaussian 16 #p B3LYP/6-31G* opt
@<TRIPOS>ATOM
1		C		6.9211		1.1904		2.4633		C.3		1		UNL1		-0.5318
2		C		7.5981		0.4215		1.3565		C.ar		1		UNL1		0.1731
3		C		8.9733		0.5129		1.1368		C.ar		1		UNL1		-0.2280
4		C		9.5851		-0.2222		0.1104		C.ar		1		UNL1		0.1661
5		C		10.9994		-0.1153		-0.1012		C.1		1		UNL1		0.2314
6		N		12.1464		-0.0267		-0.2746		N.1		1		UNL1		-0.4779
7		C		8.8174		-1.0677		-0.7042		C.ar		1		UNL1		-0.2280
8		C		7.4398		-1.1833		-0.5128		C.ar		1		UNL1		0.1725
9		C		6.5965		-2.0972		-1.3663		C.3		1		UNL1		-0.5313
10		C		6.8597		-0.4219		0.5128		C.ar		1		UNL1		0.1978
11		O		5.5037		-0.5929		0.7737		O.3		1		UNL1		-0.5354
12		C		4.5797		0.2132		0.1699		C.ar		1		UNL1		0.5337
13		C		4.9170		1.2342		-0.7336		C.ar		1		UNL1		-0.2278
14		C		3.8358		1.9436		-1.2447		C.ar		1		UNL1		0.0579
15		N		2.5614		1.7016		-0.9260		N.ar		1		UNL1		-0.4877
16		C		2.3750		0.6982		-0.0436		C.ar		1		UNL1		0.6761
17		N		1.1002		0.4082		0.3312		N.3		1		UNL1		-0.6512
18		C		-0.0831		1.1529		-0.0955		C.3		1		UNL1		0.0582
19		C		-1.2320		0.9147		0.8974		C.3		1		UNL1		-0.3001
20		C		-1.8276		-0.4927		0.7751		C.3		1		UNL1		-0.1407
21		N		-2.2600		-0.7695		-0.6026		N.3		1		UNL1		-0.4299
22		C		-2.9545		-2.0516		-0.6966		C.3		1		UNL1		-0.2119
23		C		-4.4310		-1.9893		-0.2730		C.2		1		UNL1		0.5848
24		O		-5.0372		-2.9938		0.0678		O.2		1		UNL1		-0.4973
25		N		-4.9619		-0.7278		-0.3833		N.am		1		UNL1		-0.7173
26		C		-6.2730		-0.2944		-0.1407		C.ar		1		UNL1		0.3679
27		C		-6.5443		1.0709		-0.3274		C.ar		1		UNL1		-0.1914
28		C		-7.8295		1.5470		-0.0992		C.ar		1		UNL1		-0.0709
29		CL		-8.1570		3.2575		-0.3360		Cl		1		UNL1		-0.0139
30		C		-8.8659		0.7111		0.3115		C.ar		1		UNL1		-0.1299
31		C		-8.5646		-0.6387		0.4873		C.ar		1		UNL1		-0.0815
32		CL		-9.8477		-1.7220		1.0044		Cl		1		UNL1		-0.0087
33		C		-7.2942		-1.1650		0.2718		C.ar		1		UNL1		-0.1577
34		C		-1.1366		-0.6513		-1.5481		C.3		1		UNL1		-0.1325
35		C		-0.5436		0.7573		-1.5133		C.3		1		UNL1		-0.2674
36		N		3.3371		-0.0638		0.5212		N.ar		1		UNL1		-0.5421
37		H		7.6583		1.7035		3.0869		H		1		UNL1		0.1631
38		H		6.3290		0.5246		3.1000		H		1		UNL1		0.1855
39		H		6.2331		1.9448		2.0631		H		1		UNL1		0.1745
40		H		9.5785		1.1553		1.7688		H		1		UNL1		0.1570
41		H		9.3026		-1.6410		-1.4880		H		1		UNL1		0.1569
42		H		7.2239		-2.6896		-2.0379		H		1		UNL1		0.1631
43		H		6.0065		-2.7810		-0.7468		H		1		UNL1		0.1854
44		H		5.8868		-1.5292		-1.9797		H		1		UNL1		0.1738
45		H		5.9375		1.4561		-1.0161		H		1		UNL1		0.1557
46		H		4.0028		2.7531		-1.9540		H		1		UNL1		0.1516
47		H		1.0172		-0.3296		1.0157		H		1		UNL1		0.3361
48		H		0.1857		2.2140		-0.1006		H		1		UNL1		0.1649
49		H		-2.0196		1.6485		0.6903		H		1		UNL1		0.1525
50		H		-0.8914		1.0864		1.9257		H		1		UNL1		0.1530
51		H		-1.0987		-1.2569		1.1119		H		1		UNL1		0.1236
52		H		-2.6956		-0.5832		1.4375		H		1		UNL1		0.1607
53		H		-2.9458		-2.3823		-1.7427		H		1		UNL1		0.1791
54		H		-2.4834		-2.8536		-0.1066		H		1		UNL1		0.1637
55		H		-4.2720		-0.0345		-0.6662		H		1		UNL1		0.3505
56		H		-5.7623		1.7512		-0.6487		H		1		UNL1		0.1510
57		H		-9.8633		1.0941		0.4861		H		1		UNL1		0.1740
58		H		-7.0864		-2.2154		0.4148		H		1		UNL1		0.2115
59		H		-0.3491		-1.3946		-1.3236		H		1		UNL1		0.1316
60		H		-1.5132		-0.8730		-2.5528		H		1		UNL1		0.1485
61		H		0.3021		0.8317		-2.2034		H		1		UNL1		0.1678
62		H		-1.3052		1.4751		-1.8446		H		1		UNL1		0.1376
@<TRIPOS>BOND
1		60		34		1
2		61		35		1
3		42		9		1
4		44		9		1
5		46		14		1
6		62		35		1
7		53		22		1
8		34		35		1
9		34		59		1
10		34		21		1
11		35		18		1
12		41		7		1
13		9		43		1
14		9		8		1
15		14		15		ar
16		14		13		ar
17		45		13		1
18		15		16		ar
19		13		12		ar
20		7		8		ar
21		7		4		ar
22		22		21		1
23		22		23		1
24		22		54		1
25		55		25		1
26		56		27		1
27		21		20		1
28		8		10		ar
29		25		23		1
30		25		26		1
31		29		28		1
32		27		26		ar
33		27		28		ar
34		6		5		3
35		23		24		2
36		26		33		ar
37		5		4		1
38		48		18		1
39		28		30		ar
40		18		17		1
41		18		19		1
42		16		17		1
43		16		36		ar
44		4		3		ar
45		12		36		ar
46		12		11		1
47		33		58		1
48		33		31		ar
49		30		57		1
50		30		31		ar
51		17		47		1
52		31		32		1
53		10		11		1
54		10		2		ar
55		49		19		1
56		20		19		1
57		20		51		1
58		20		52		1
59		19		50		1
60		3		2		ar
61		3		40		1
62		2		1		1
63		39		1		1
64		1		37		1
65		1		38		1

