@<TRIPOS>MOLECULE
WZY-2015-EJMC-1-4-7i
 62 65 0 0 0
SMALL
MULLIKEN_CHARGES
****
Gaussian 16 #p B3LYP/6-31G* opt
@<TRIPOS>ATOM
1		C		-4.5964		2.7437		0.1525		C.3		1		UNL1		-0.5312
2		C		-5.8064		1.8724		-0.0742		C.ar		1		UNL1		0.1723
3		C		-7.1030		2.3781		0.0296		C.ar		1		UNL1		-0.2282
4		C		-8.2141		1.5526		-0.1988		C.ar		1		UNL1		0.1657
5		C		-9.5393		2.0890		-0.0872		C.1		1		UNL1		0.2309
6		N		-10.6147		2.5233		0.0056		N.1		1		UNL1		-0.4793
7		C		-8.0312		0.2051		-0.5438		C.ar		1		UNL1		-0.2283
8		C		-6.7489		-0.3337		-0.6564		C.ar		1		UNL1		0.1728
9		C		-6.5274		-1.7753		-1.0406		C.3		1		UNL1		-0.5314
10		C		-5.6615		0.5170		-0.4065		C.ar		1		UNL1		0.2001
11		O		-4.3773		0.0201		-0.6013		O.3		1		UNL1		-0.5360
12		C		-3.6961		-0.5510		0.4384		C.ar		1		UNL1		0.5294
13		C		-4.2175		-0.6710		1.7320		C.ar		1		UNL1		-0.2302
14		C		-3.3633		-1.2788		2.6528		C.ar		1		UNL1		0.0602
15		N		-2.1450		-1.7264		2.3605		N.ar		1		UNL1		-0.4889
16		C		-1.7641		-1.5534		1.0716		C.ar		1		UNL1		0.6744
17		N		-0.5326		-2.0293		0.7501		N.3		1		UNL1		-0.6507
18		C		0.1148		-1.8774		-0.5480		C.3		1		UNL1		0.0732
19		C		1.1667		-2.9972		-0.7186		C.3		1		UNL1		-0.3001
20		C		2.2787		-2.5447		-1.6750		C.3		1		UNL1		-0.1410
21		N		3.0248		-1.3765		-1.1780		N.3		1		UNL1		-0.3657
22		C		4.3333		-1.6520		-0.6478		C.3		1		UNL1		-0.2241
23		C		5.2562		-0.4141		-0.6735		C.2		1		UNL1		0.6192
24		O		5.0527		0.5598		-1.3771		O.2		1		UNL1		-0.4848
25		N		6.3450		-0.5551		0.1636		N.am		1		UNL1		-0.7255
26		C		7.4422		0.3089		0.3484		C.ar		1		UNL1		0.3647
27		C		8.4404		-0.0950		1.2517		C.ar		1		UNL1		-0.1983
28		C		9.5499		0.7141		1.4795		C.ar		1		UNL1		-0.1335
29		C		9.6922		1.9349		0.8187		C.ar		1		UNL1		-0.1998
30		C		8.6897		2.3079		-0.0684		C.ar		1		UNL1		0.3851
31		F		8.8067		3.4851		-0.7181		F		1		UNL1		-0.2978
32		C		7.5661		1.5326		-0.3249		C.ar		1		UNL1		-0.2488
33		C		2.2381		-0.4779		-0.3228		C.3		1		UNL1		-0.1353
34		C		0.7711		-0.4833		-0.7486		C.3		1		UNL1		-0.2911
35		N		-2.4891		-0.9746		0.0951		N.ar		1		UNL1		-0.5387
36		H		-4.0361		2.4255		1.0398		H		1		UNL1		0.1749
37		H		-4.8903		3.7873		0.2949		H		1		UNL1		0.1622
38		H		-3.9070		2.6884		-0.6966		H		1		UNL1		0.1858
39		H		-7.2554		3.4221		0.2849		H		1		UNL1		0.1562
40		H		-8.8977		-0.4220		-0.7294		H		1		UNL1		0.1558
41		H		-7.4735		-2.2574		-1.3016		H		1		UNL1		0.1617
42		H		-6.0735		-2.3423		-0.2191		H		1		UNL1		0.1752
43		H		-5.8480		-1.8545		-1.8959		H		1		UNL1		0.1848
44		H		-5.2023		-0.3170		2.0061		H		1		UNL1		0.1530
45		H		-3.6843		-1.4095		3.6856		H		1		UNL1		0.1497
46		H		-0.0053		-2.3913		1.5325		H		1		UNL1		0.3308
47		H		-0.6713		-1.9920		-1.2989		H		1		UNL1		0.1700
48		H		1.6167		-3.2349		0.2564		H		1		UNL1		0.1303
49		H		0.6929		-3.9179		-1.0772		H		1		UNL1		0.1521
50		H		2.9817		-3.3654		-1.8505		H		1		UNL1		0.1368
51		H		1.8353		-2.3055		-2.6529		H		1		UNL1		0.1510
52		H		4.8196		-2.4137		-1.2712		H		1		UNL1		0.1735
53		H		4.3172		-2.0558		0.3903		H		1		UNL1		0.1126
54		H		6.3746		-1.4024		0.7159		H		1		UNL1		0.3301
55		H		8.3449		-1.0444		1.7739		H		1		UNL1		0.1220
56		H		10.3135		0.3890		2.1803		H		1		UNL1		0.1392
57		H		10.5461		2.5839		0.9777		H		1		UNL1		0.1445
58		H		6.8116		1.8657		-1.0224		H		1		UNL1		0.1997
59		H		2.6585		0.5294		-0.3988		H		1		UNL1		0.1746
60		H		2.3084		-0.7757		0.7451		H		1		UNL1		0.0987
61		H		0.7112		-0.2029		-1.8070		H		1		UNL1		0.1577
62		H		0.2077		0.2700		-0.1907		H		1		UNL1		0.1578
@<TRIPOS>BOND
1		51		20		1
2		43		9		1
3		50		20		1
4		61		34		1
5		20		21		1
6		20		19		1
7		24		23		2
8		41		9		1
9		47		18		1
10		52		22		1
11		21		22		1
12		21		33		1
13		49		19		1
14		9		8		1
15		9		42		1
16		58		32		1
17		34		18		1
18		34		33		1
19		34		62		1
20		40		7		1
21		19		18		1
22		19		48		1
23		31		30		1
24		38		1		1
25		23		22		1
26		23		25		1
27		8		7		ar
28		8		10		ar
29		22		53		1
30		11		10		1
31		11		12		1
32		18		17		1
33		7		4		ar
34		10		2		ar
35		59		33		1
36		32		30		ar
37		32		26		ar
38		33		60		1
39		4		5		1
40		4		3		ar
41		5		6		3
42		2		3		ar
43		2		1		1
44		30		29		ar
45		3		39		1
46		35		12		ar
47		35		16		ar
48		1		37		1
49		1		36		1
50		25		26		1
51		25		54		1
52		26		27		ar
53		12		13		ar
54		17		16		1
55		17		46		1
56		29		57		1
57		29		28		ar
58		16		15		ar
59		27		28		ar
60		27		55		1
61		28		56		1
62		13		44		1
63		13		14		ar
64		15		14		ar
65		14		45		1

