@<TRIPOS>MOLECULE
WZY-2015-EJMC-1-4-7e
 68 71 0 0 0
SMALL
MULLIKEN_CHARGES
****
Gaussian 16 #p B3LYP/6-31G* opt
@<TRIPOS>ATOM
1		C		10.1044		1.8116		0.6138		C.3		1		UNL1		-0.5319
2		C		9.2145		0.6203		0.3410		C.ar		1		UNL1		0.1873
3		C		9.7470		-0.6774		0.3247		C.ar		1		UNL1		-0.2365
4		C		8.9418		-1.7878		0.0640		C.ar		1		UNL1		0.1696
5		C		9.5241		-3.1833		0.0527		C.3		1		UNL1		-0.5274
6		C		7.5742		-1.6076		-0.1867		C.ar		1		UNL1		-0.2263
7		C		7.0284		-0.3202		-0.1715		C.ar		1		UNL1		0.3717
8		N		5.6647		-0.0619		-0.4117		N.am		1		UNL1		-0.7179
9		C		4.6476		-0.9327		-0.6838		C.2		1		UNL1		0.5839
10		O		4.7383		-2.1506		-0.7725		O.2		1		UNL1		-0.5094
11		C		3.3020		-0.2277		-0.9429		C.3		1		UNL1		-0.2310
12		N		3.2238		1.1214		-0.3840		N.3		1		UNL1		-0.4191
13		C		2.9118		1.1618		1.0639		C.3		1		UNL1		-0.1381
14		C		1.4566		1.5850		1.3859		C.3		1		UNL1		-0.3081
15		C		0.4922		1.1053		0.2943		C.3		1		UNL1		0.0691
16		N		-0.8877		1.3660		0.6779		N.3		1		UNL1		-0.6511
17		C		-1.9584		0.6269		0.2765		C.ar		1		UNL1		0.6767
18		N		-1.7237		-0.5125		-0.4070		N.ar		1		UNL1		-0.4892
19		C		-2.8130		-1.2093		-0.7371		C.ar		1		UNL1		0.0595
20		C		-4.1126		-0.8205		-0.4284		C.ar		1		UNL1		-0.2293
21		C		-4.2139		0.3915		0.2725		C.ar		1		UNL1		0.5335
22		O		-5.4058		0.9425		0.6552		O.3		1		UNL1		-0.5362
23		C		-6.6024		0.2990		0.3576		C.ar		1		UNL1		0.1990
24		C		-7.2654		0.6444		-0.8296		C.ar		1		UNL1		0.1726
25		C		-6.6502		1.6220		-1.7994		C.3		1		UNL1		-0.5312
26		C		-8.5086		0.0580		-1.0707		C.ar		1		UNL1		-0.2282
27		C		-9.0683		-0.8387		-0.1484		C.ar		1		UNL1		0.1658
28		C		-10.3471		-1.4315		-0.4125		C.1		1		UNL1		0.2311
29		N		-11.3837		-1.9137		-0.6279		N.1		1		UNL1		-0.4788
30		C		-8.3833		-1.1502		1.0356		C.ar		1		UNL1		-0.2281
31		C		-7.1382		-0.5822		1.3090		C.ar		1		UNL1		0.1726
32		C		-6.3899		-0.8907		2.5816		C.3		1		UNL1		-0.5315
33		N		-3.1680		1.1161		0.6270		N.ar		1		UNL1		-0.5422
34		C		0.8699		1.7471		-1.0672		C.3		1		UNL1		-0.2851
35		C		2.3861		2.0553		-1.1429		C.3		1		UNL1		-0.1545
36		C		7.8541		0.7860		0.0931		C.ar		1		UNL1		-0.2633
37		H		9.5253		2.7378		0.6874		H		1		UNL1		0.1502
38		H		10.6607		1.6886		1.5509		H		1		UNL1		0.1607
39		H		10.8463		1.9463		-0.1837		H		1		UNL1		0.1631
40		H		10.8083		-0.8203		0.5188		H		1		UNL1		0.1095
41		H		10.6055		-3.1678		0.2214		H		1		UNL1		0.1499
42		H		9.0719		-3.8094		0.8319		H		1		UNL1		0.1641
43		H		9.3396		-3.6840		-0.9056		H		1		UNL1		0.1639
44		H		6.9300		-2.4528		-0.3916		H		1		UNL1		0.1748
45		H		5.3539		0.9061		-0.3774		H		1		UNL1		0.3494
46		H		2.5210		-0.9175		-0.5907		H		1		UNL1		0.1683
47		H		3.1922		-0.1617		-2.0326		H		1		UNL1		0.1741
48		H		3.6047		1.8493		1.5672		H		1		UNL1		0.1452
49		H		3.1056		0.1664		1.4767		H		1		UNL1		0.1610
50		H		1.3924		2.6798		1.4682		H		1		UNL1		0.1339
51		H		1.1613		1.1790		2.3595		H		1		UNL1		0.1589
52		H		0.5716		0.0188		0.2049		H		1		UNL1		0.1801
53		H		-1.1218		2.2618		1.0855		H		1		UNL1		0.3294
54		H		-2.6376		-2.1338		-1.2857		H		1		UNL1		0.1521
55		H		-4.9741		-1.4083		-0.7158		H		1		UNL1		0.1544
56		H		-6.3743		2.5547		-1.2962		H		1		UNL1		0.1847
57		H		-7.3465		1.8560		-2.6093		H		1		UNL1		0.1621
58		H		-5.7342		1.2177		-2.2467		H		1		UNL1		0.1746
59		H		-9.0521		0.3006		-1.9786		H		1		UNL1		0.1561
60		H		-8.8304		-1.8369		1.7477		H		1		UNL1		0.1564
61		H		-5.4606		-1.4355		2.3766		H		1		UNL1		0.1757
62		H		-6.9993		-1.5032		3.2517		H		1		UNL1		0.1623
63		H		-6.1108		0.0289		3.1068		H		1		UNL1		0.1853
64		H		0.5577		1.0768		-1.8753		H		1		UNL1		0.1602
65		H		0.3065		2.6804		-1.1966		H		1		UNL1		0.1358
66		H		2.7299		2.0695		-2.1827		H		1		UNL1		0.1507
67		H		2.5787		3.0580		-0.7406		H		1		UNL1		0.1444
68		H		7.4224		1.7856		0.1020		H		1		UNL1		0.1105
@<TRIPOS>BOND
1		57		25		1
2		58		25		1
3		66		35		1
4		47		11		1
5		59		26		1
6		64		34		1
7		25		56		1
8		25		24		1
9		54		19		1
10		65		34		1
11		35		34		1
12		35		67		1
13		35		12		1
14		26		24		ar
15		26		27		ar
16		34		15		1
17		11		9		1
18		11		46		1
19		11		12		1
20		43		5		1
21		24		23		ar
22		10		9		2
23		19		20		ar
24		19		18		ar
25		55		20		1
26		9		8		1
27		29		28		3
28		20		21		ar
29		28		27		1
30		8		45		1
31		8		7		1
32		18		17		ar
33		44		6		1
34		12		13		1
35		6		7		ar
36		6		4		ar
37		39		1		1
38		7		36		ar
39		27		30		ar
40		5		4		1
41		5		41		1
42		5		42		1
43		4		3		ar
44		36		68		1
45		36		2		ar
46		52		15		1
47		21		33		ar
48		21		22		1
49		17		33		ar
50		17		16		1
51		15		16		1
52		15		14		1
53		3		2		ar
54		3		40		1
55		2		1		1
56		23		22		1
57		23		31		ar
58		1		37		1
59		1		38		1
60		16		53		1
61		30		31		ar
62		30		60		1
63		13		14		1
64		13		49		1
65		13		48		1
66		31		32		1
67		14		50		1
68		14		51		1
69		61		32		1
70		32		63		1
71		32		62		1

