@<TRIPOS>MOLECULE
WZY-2015-BMC-4248-3-3n
 47 49 0 0 0
SMALL
MULLIKEN_CHARGES
****
Gaussian 16 #p B3LYP/6-31G* opt
@<TRIPOS>ATOM
1		C		4.3001		-1.7266		1.6841		C.3		1		UNL1		-0.5333
2		C		4.8105		-0.5634		0.8707		C.ar		1		UNL1		0.1736
3		C		5.8932		0.2085		1.2955		C.ar		1		UNL1		-0.2275
4		C		6.3633		1.2748		0.5144		C.ar		1		UNL1		0.1675
5		C		7.4760		2.0576		0.9683		C.1		1		UNL1		0.2328
6		N		8.3763		2.6949		1.3379		N.1		1		UNL1		-0.4749
7		C		5.7535		1.5723		-0.7134		C.ar		1		UNL1		-0.2276
8		C		4.6685		0.8224		-1.1701		C.ar		1		UNL1		0.1724
9		C		4.0084		1.1111		-2.4954		C.3		1		UNL1		-0.5320
10		C		4.2159		-0.2238		-0.3533		C.ar		1		UNL1		0.1902
11		O		3.1878		-1.0354		-0.8340		O.3		1		UNL1		-0.5214
12		C		1.8939		-0.7532		-0.5302		C.ar		1		UNL1		0.5198
13		C		1.4947		0.3502		0.2430		C.ar		1		UNL1		-0.2042
14		C		0.1266		0.4773		0.4323		C.ar		1		UNL1		0.0585
15		N		-0.7760		-0.3792		-0.0702		N.ar		1		UNL1		-0.4442
16		C		-0.2634		-1.3969		-0.7737		C.ar		1		UNL1		0.2703
17		S		-1.3367		-2.6212		-1.4669		S.3		1		UNL1		0.2272
18		C		-2.9666		-2.0550		-0.8828		C.3		1		UNL1		-0.5333
19		C		-3.1855		-2.2167		0.6252		C.2		1		UNL1		0.6194
20		O		-2.6731		-3.1132		1.2687		O.2		1		UNL1		-0.4701
21		N		-4.1281		-1.3935		1.2273		N.am		1		UNL1		-0.7150
22		C		-4.7647		-0.2057		0.8087		C.ar		1		UNL1		0.3297
23		C		-6.1201		-0.0252		1.1290		C.ar		1		UNL1		-0.1725
24		C		-6.7791		1.1454		0.7772		C.ar		1		UNL1		-0.1438
25		C		-6.0949		2.1573		0.0824		C.ar		1		UNL1		0.1360
26		C		-6.7730		3.3614		-0.2948		C.1		1		UNL1		0.2339
27		N		-7.3230		4.3398		-0.6017		N.1		1		UNL1		-0.4757
28		C		-4.7361		1.9810		-0.2287		C.ar		1		UNL1		-0.1588
29		C		-4.0708		0.8195		0.1455		C.ar		1		UNL1		-0.1749
30		N		1.0296		-1.6217		-1.0338		N.ar		1		UNL1		-0.4680
31		H		3.2926		-1.5352		2.0731		H		1		UNL1		0.1748
32		H		4.2394		-2.6358		1.0768		H		1		UNL1		0.1912
33		H		4.9567		-1.9209		2.5364		H		1		UNL1		0.1666
34		H		6.3817		-0.0213		2.2372		H		1		UNL1		0.1600
35		H		6.1343		2.3911		-1.3157		H		1		UNL1		0.1596
36		H		4.5584		1.8813		-3.0426		H		1		UNL1		0.1665
37		H		2.9780		1.4632		-2.3634		H		1		UNL1		0.1712
38		H		3.9604		0.2103		-3.1162		H		1		UNL1		0.1899
39		H		2.1996		1.0565		0.6620		H		1		UNL1		0.1685
40		H		-0.2729		1.3058		1.0140		H		1		UNL1		0.1622
41		H		-3.1710		-1.0514		-1.2475		H		1		UNL1		0.2050
42		H		-3.6736		-2.7339		-1.3761		H		1		UNL1		0.2127
43		H		-4.3754		-1.7379		2.1491		H		1		UNL1		0.3432
44		H		-6.6570		-0.8157		1.6460		H		1		UNL1		0.1492
45		H		-7.8272		1.2776		1.0253		H		1		UNL1		0.1654
46		H		-4.1990		2.7712		-0.7437		H		1		UNL1		0.1633
47		H		-3.0078		0.7071		-0.0427		H		1		UNL1		0.1967
@<TRIPOS>BOND
1		38		9		1
2		36		9		1
3		9		37		1
4		9		8		1
5		17		18		1
6		17		16		1
7		42		18		1
8		35		7		1
9		41		18		1
10		8		7		ar
11		8		10		ar
12		30		16		ar
13		30		12		ar
14		18		19		1
15		11		12		1
16		11		10		1
17		16		15		ar
18		46		28		1
19		7		4		ar
20		27		26		3
21		12		13		ar
22		10		2		ar
23		26		25		1
24		28		25		ar
25		28		29		ar
26		15		14		ar
27		47		29		1
28		25		24		ar
29		29		22		ar
30		13		14		ar
31		13		39		1
32		14		40		1
33		4		5		1
34		4		3		ar
35		19		21		1
36		19		20		2
37		24		45		1
38		24		23		ar
39		22		23		ar
40		22		21		1
41		2		3		ar
42		2		1		1
43		5		6		3
44		32		1		1
45		23		44		1
46		21		43		1
47		3		34		1
48		1		31		1
49		1		33		1

