@<TRIPOS>MOLECULE
WZY-2015-BMC-4248-3-3i
 46 48 0 0 0
SMALL
MULLIKEN_CHARGES
****
Gaussian 16 #p B3LYP/6-31G* opt
@<TRIPOS>ATOM
1		C		3.1624		2.2995		-0.9566		C.3		1		UNL1		-0.5330
2		C		4.3683		1.5676		-0.4220		C.ar		1		UNL1		0.1735
3		C		5.4502		2.2499		0.1370		C.ar		1		UNL1		-0.2271
4		C		6.5698		1.5509		0.6118		C.ar		1		UNL1		0.1681
5		C		7.6717		2.2691		1.1837		C.1		1		UNL1		0.2334
6		N		8.5644		2.8511		1.6501		N.1		1		UNL1		-0.4736
7		C		6.6188		0.1520		0.5208		C.ar		1		UNL1		-0.2271
8		C		5.5557		-0.5640		-0.0320		C.ar		1		UNL1		0.1739
9		C		5.5945		-2.0667		-0.1581		C.3		1		UNL1		-0.5331
10		C		4.4468		0.1687		-0.4791		C.ar		1		UNL1		0.1887
11		O		3.4122		-0.5237		-1.1115		O.3		1		UNL1		-0.5218
12		C		2.3581		-0.9858		-0.3913		C.ar		1		UNL1		0.5182
13		C		2.2148		-0.8050		0.9945		C.ar		1		UNL1		-0.2012
14		C		1.0650		-1.3463		1.5522		C.ar		1		UNL1		0.0555
15		N		0.1382		-2.0042		0.8390		N.ar		1		UNL1		-0.4186
16		C		0.3987		-2.1080		-0.4640		C.ar		1		UNL1		0.2483
17		S		-0.7606		-2.9693		-1.5126		S.3		1		UNL1		0.1601
18		C		-2.0316		-3.4784		-0.2973		C.3		1		UNL1		-0.5316
19		C		-2.9990		-2.4233		0.2617		C.2		1		UNL1		0.6346
20		O		-3.6399		-2.6857		1.2665		O.2		1		UNL1		-0.4854
21		N		-3.1101		-1.2655		-0.4659		N.am		1		UNL1		-0.7261
22		C		-3.9268		-0.1490		-0.2173		C.ar		1		UNL1		0.3659
23		C		-4.8108		-0.0778		0.8702		C.ar		1		UNL1		-0.1561
24		C		-5.5749		1.0756		1.0259		C.ar		1		UNL1		-0.0814
25		CL		-6.6832		1.1723		2.3855		Cl		1		UNL1		-0.0075
26		C		-5.5003		2.1584		0.1514		C.ar		1		UNL1		-0.1294
27		C		-4.6128		2.0542		-0.9177		C.ar		1		UNL1		-0.0711
28		CL		-4.4799		3.3922		-2.0489		Cl		1		UNL1		-0.0117
29		C		-3.8282		0.9249		-1.1168		C.ar		1		UNL1		-0.1964
30		N		1.4590		-1.6327		-1.1232		N.ar		1		UNL1		-0.4618
31		H		2.2652		2.0849		-0.3634		H		1		UNL1		0.1725
32		H		2.9442		1.9994		-1.9869		H		1		UNL1		0.1887
33		H		3.3253		3.3803		-0.9372		H		1		UNL1		0.1685
34		H		5.4290		3.3333		0.2004		H		1		UNL1		0.1611
35		H		7.4961		-0.3774		0.8790		H		1		UNL1		0.1607
36		H		4.8454		-2.5443		0.4852		H		1		UNL1		0.1724
37		H		6.5762		-2.4539		0.1273		H		1		UNL1		0.1677
38		H		5.3813		-2.3818		-1.1849		H		1		UNL1		0.1897
39		H		2.9472		-0.2768		1.5915		H		1		UNL1		0.1711
40		H		0.8690		-1.2511		2.6182		H		1		UNL1		0.1727
41		H		-2.6249		-4.2404		-0.8155		H		1		UNL1		0.2116
42		H		-1.5498		-3.9491		0.5597		H		1		UNL1		0.2323
43		H		-2.4982		-1.1966		-1.2717		H		1		UNL1		0.3599
44		H		-4.8883		-0.9025		1.5629		H		1		UNL1		0.2134
45		H		-6.1067		3.0434		0.2959		H		1		UNL1		0.1747
46		H		-3.1489		0.8792		-1.9622		H		1		UNL1		0.1568
@<TRIPOS>BOND
1		28		27		1
2		32		1		1
3		46		29		1
4		17		16		1
5		17		18		1
6		43		21		1
7		38		9		1
8		30		16		ar
9		30		12		ar
10		29		27		ar
11		29		22		ar
12		11		10		1
13		11		12		1
14		1		33		1
15		1		2		1
16		1		31		1
17		27		26		ar
18		41		18		1
19		10		2		ar
20		10		8		ar
21		21		22		1
22		21		19		1
23		16		15		ar
24		2		3		ar
25		12		13		ar
26		18		19		1
27		18		42		1
28		22		23		ar
29		9		8		1
30		9		37		1
31		9		36		1
32		8		7		ar
33		3		34		1
34		3		4		ar
35		26		45		1
36		26		24		ar
37		19		20		2
38		7		4		ar
39		7		35		1
40		4		5		1
41		15		14		ar
42		23		24		ar
43		23		44		1
44		13		14		ar
45		13		39		1
46		24		25		1
47		5		6		3
48		14		40		1

