@<TRIPOS>MOLECULE
WZY-2015-BMC-4248-3-3d
 46 48 0 0 0
SMALL
MULLIKEN_CHARGES
****
Gaussian 16 #p B3LYP/6-31G* opt
@<TRIPOS>ATOM
1		C		-4.9288		-0.6231		2.5298		C.3		1		UNL1		-0.5322
2		C		-5.6391		-0.3150		1.2353		C.ar		1		UNL1		0.1726
3		C		-6.9358		0.2010		1.2160		C.ar		1		UNL1		-0.2277
4		C		-7.5840		0.4640		0.0000		C.ar		1		UNL1		0.1669
5		C		-8.9158		0.9961		0.0000		C.1		1		UNL1		0.2322
6		N		-9.9947		1.4311		0.0001		N.1		1		UNL1		-0.4764
7		C		-6.9359		0.2002		-1.2158		C.ar		1		UNL1		-0.2276
8		C		-5.6392		-0.3158		-1.2349		C.ar		1		UNL1		0.1726
9		C		-4.9292		-0.6250		-2.5294		C.3		1		UNL1		-0.5322
10		C		-5.0167		-0.5489		0.0002		C.ar		1		UNL1		0.1932
11		O		-3.7558		-1.1424		0.0004		O.3		1		UNL1		-0.5234
12		C		-2.6343		-0.3701		-0.0001		C.ar		1		UNL1		0.5154
13		C		-2.6546		1.0348		-0.0007		C.ar		1		UNL1		-0.2062
14		C		-1.4078		1.6442		-0.0010		C.ar		1		UNL1		0.0544
15		N		-0.2494		0.9686		-0.0008		N.ar		1		UNL1		-0.4406
16		C		-0.3695		-0.3654		-0.0001		C.ar		1		UNL1		0.2430
17		S		1.0764		-1.3904		0.0002		S.3		1		UNL1		0.2414
18		C		2.3686		-0.0951		-0.0003		C.3		1		UNL1		-0.5361
19		C		3.7387		-0.7728		-0.0000		C.2		1		UNL1		0.6275
20		O		3.8759		-1.9861		0.0003		O.2		1		UNL1		-0.4763
21		N		4.7734		0.1369		-0.0003		N.am		1		UNL1		-0.7316
22		C		6.1577		-0.1053		-0.0000		C.ar		1		UNL1		0.3686
23		C		6.7148		-1.3957		0.0001		C.ar		1		UNL1		-0.1563
24		C		8.0972		-1.5652		0.0003		C.ar		1		UNL1		-0.1427
25		C		8.9568		-0.4669		0.0004		C.ar		1		UNL1		-0.1218
26		C		8.4219		0.8203		0.0002		C.ar		1		UNL1		-0.1376
27		C		7.0418		0.9914		-0.0000		C.ar		1		UNL1		-0.1465
28		CL		6.4011		2.6408		-0.0002		Cl		1		UNL1		-0.0217
29		N		-1.5105		-1.0692		0.0002		N.ar		1		UNL1		-0.4654
30		H		-4.0631		0.0335		2.6796		H		1		UNL1		0.1727
31		H		-4.5535		-1.6518		2.5379		H		1		UNL1		0.1903
32		H		-5.6013		-0.4914		3.3818		H		1		UNL1		0.1651
33		H		-7.4519		0.3960		2.1509		H		1		UNL1		0.1585
34		H		-7.4520		0.3948		-2.1508		H		1		UNL1		0.1585
35		H		-4.5544		-1.6538		-2.5369		H		1		UNL1		0.1903
36		H		-4.0632		0.0311		-2.6796		H		1		UNL1		0.1727
37		H		-5.6017		-0.4935		-3.3813		H		1		UNL1		0.1651
38		H		-3.5735		1.6067		-0.0009		H		1		UNL1		0.1649
39		H		-1.3274		2.7298		-0.0015		H		1		UNL1		0.1600
40		H		2.2523		0.5455		-0.8801		H		1		UNL1		0.2128
41		H		2.2523		0.5462		0.8791		H		1		UNL1		0.2127
42		H		4.5159		1.1162		-0.0004		H		1		UNL1		0.3512
43		H		6.0471		-2.2454		0.0001		H		1		UNL1		0.1987
44		H		8.5015		-2.5733		0.0005		H		1		UNL1		0.1437
45		H		10.0338		-0.6036		0.0005		H		1		UNL1		0.1403
46		H		9.0643		1.6944		0.0002		H		1		UNL1		0.1568
@<TRIPOS>BOND
1		37		9		1
2		36		9		1
3		35		9		1
4		9		8		1
5		34		7		1
6		8		7		ar
7		8		10		ar
8		7		4		ar
9		40		18		1
10		39		14		1
11		14		15		ar
12		14		13		ar
13		38		13		1
14		15		16		ar
15		13		12		ar
16		42		21		1
17		21		22		1
18		21		19		1
19		18		19		1
20		18		17		1
21		18		41		1
22		28		27		1
23		16		17		1
24		16		29		ar
25		12		29		ar
26		12		11		1
27		22		27		ar
28		22		23		ar
29		27		26		ar
30		19		20		2
31		4		5		1
32		4		3		ar
33		5		6		3
34		23		43		1
35		23		24		ar
36		26		46		1
37		26		25		ar
38		10		11		1
39		10		2		ar
40		24		25		ar
41		24		44		1
42		25		45		1
43		3		2		ar
44		3		33		1
45		2		1		1
46		1		31		1
47		1		30		1
48		1		32		1

