@<TRIPOS>MOLECULE
WZY-2015-BMC-4248-3-3l
 48 50 0 0 0
SMALL
MULLIKEN_CHARGES
****
Gaussian 16 #p B3LYP/6-31G* opt
@<TRIPOS>ATOM
1		C		1.6809		1.9832		0.9685		C.3		1		UNL1		-0.5335
2		C		3.0317		1.6213		0.4031		C.ar		1		UNL1		0.1742
3		C		4.1558		2.4192		0.6231		C.ar		1		UNL1		-0.2269
4		C		5.3983		2.0741		0.0709		C.ar		1		UNL1		0.1684
5		C		6.5432		2.9038		0.3113		C.1		1		UNL1		0.2334
6		N		7.4731		3.5738		0.5098		N.1		1		UNL1		-0.4737
7		C		5.5229		0.9238		-0.7222		C.ar		1		UNL1		-0.2272
8		C		4.4207		0.1021		-0.9643		C.ar		1		UNL1		0.1745
9		C		4.5260		-1.1272		-1.8322		C.3		1		UNL1		-0.5338
10		C		3.2012		0.4693		-0.3780		C.ar		1		UNL1		0.1888
11		O		2.0701		-0.2947		-0.6748		O.3		1		UNL1		-0.5196
12		C		1.7263		-1.3401		0.1175		C.ar		1		UNL1		0.5255
13		C		2.4448		-1.7420		1.2512		C.ar		1		UNL1		-0.2013
14		C		1.9284		-2.8422		1.9294		C.ar		1		UNL1		0.0494
15		N		0.8229		-3.4933		1.5498		N.ar		1		UNL1		-0.4200
16		C		0.2349		-3.0066		0.4516		C.ar		1		UNL1		0.2476
17		S		-1.2296		-3.9053		-0.0312		S.3		1		UNL1		0.1593
18		C		-1.7649		-2.9618		-1.5059		C.3		1		UNL1		-0.5350
19		C		-2.4476		-1.5984		-1.3124		C.2		1		UNL1		0.6330
20		O		-2.5500		-0.8481		-2.2686		O.2		1		UNL1		-0.4799
21		N		-2.9499		-1.3505		-0.0592		N.am		1		UNL1		-0.7314
22		C		-3.6473		-0.2180		0.3945		C.ar		1		UNL1		0.3587
23		C		-4.0706		-0.2105		1.7352		C.ar		1		UNL1		-0.1787
24		C		-4.7653		0.8768		2.2577		C.ar		1		UNL1		-0.1423
25		C		-5.0543		1.9822		1.4599		C.ar		1		UNL1		-0.1550
26		C		-4.6249		1.9531		0.1360		C.ar		1		UNL1		0.2664
27		N		-4.9191		3.1174		-0.7239		N.pl3		1		UNL1		0.3836
28		O		-4.5312		3.0839		-1.8895		O.2		1		UNL1		-0.3855
29		O		-5.5360		4.0555		-0.2183		O.2		1		UNL1		-0.3965
30		C		-3.9296		0.8850		-0.4234		C.ar		1		UNL1		-0.1985
31		N		0.6217		-1.9668		-0.2840		N.ar		1		UNL1		-0.4604
32		H		1.3483		1.2522		1.7156		H		1		UNL1		0.1691
33		H		1.7132		2.9638		1.4506		H		1		UNL1		0.1686
34		H		0.9186		2.0075		0.1827		H		1		UNL1		0.1947
35		H		4.0678		3.3199		1.2224		H		1		UNL1		0.1613
36		H		6.4859		0.6750		-1.1569		H		1		UNL1		0.1606
37		H		4.3656		-2.0448		-1.2532		H		1		UNL1		0.1714
38		H		5.5149		-1.1914		-2.2938		H		1		UNL1		0.1681
39		H		3.7724		-1.1138		-2.6267		H		1		UNL1		0.1900
40		H		3.3411		-1.2337		1.5827		H		1		UNL1		0.1705
41		H		2.4249		-3.2205		2.8208		H		1		UNL1		0.1680
42		H		-0.9109		-2.7965		-2.1632		H		1		UNL1		0.2349
43		H		-2.4697		-3.6221		-2.0235		H		1		UNL1		0.2127
44		H		-2.7781		-2.0732		0.6313		H		1		UNL1		0.3584
45		H		-3.8534		-1.0667		2.3699		H		1		UNL1		0.1441
46		H		-5.0842		0.8606		3.2955		H		1		UNL1		0.1499
47		H		-5.5925		2.8423		1.8360		H		1		UNL1		0.1813
48		H		-3.6188		0.9072		-1.4571		H		1		UNL1		0.2328
@<TRIPOS>BOND
1		39		9		1
2		38		9		1
3		20		19		2
4		42		18		1
5		43		18		1
6		28		27		2
7		9		37		1
8		9		8		1
9		18		19		1
10		18		17		1
11		48		30		1
12		19		21		1
13		36		7		1
14		8		7		ar
15		8		10		ar
16		27		29		2
17		27		26		1
18		7		4		ar
19		11		10		1
20		11		12		1
21		30		26		ar
22		30		22		ar
23		10		2		ar
24		31		12		ar
25		31		16		ar
26		21		22		1
27		21		44		1
28		17		16		1
29		4		5		1
30		4		3		ar
31		12		13		ar
32		26		25		ar
33		34		1		1
34		5		6		3
35		22		23		ar
36		2		3		ar
37		2		1		1
38		16		15		ar
39		3		35		1
40		1		33		1
41		1		32		1
42		13		40		1
43		13		14		ar
44		25		47		1
45		25		24		ar
46		15		14		ar
47		23		24		ar
48		23		45		1
49		14		41		1
50		24		46		1

