@<TRIPOS>MOLECULE
WZY-2015-EJMC-1-4-7t
 63 66 0 0 0
SMALL
MULLIKEN_CHARGES
****
Gaussian 16 #p B3LYP/6-31G* opt
@<TRIPOS>ATOM
1		C		-6.9170		-1.8210		-0.2876		C.3		1		UNL1		-0.5338
2		C		-6.8831		-0.3219		-0.1307		C.ar		1		UNL1		0.1765
3		C		-7.5524		0.5212		-1.0183		C.ar		1		UNL1		-0.2306
4		C		-7.5061		1.9137		-0.8552		C.ar		1		UNL1		0.1659
5		C		-8.2000		2.7657		-1.7763		C.1		1		UNL1		0.2288
6		N		-8.7612		3.4570		-2.5252		N.1		1		UNL1		-0.4815
7		C		-6.7863		2.4734		0.2109		C.ar		1		UNL1		-0.2306
8		C		-6.1059		1.6586		1.1164		C.ar		1		UNL1		0.1786
9		C		-5.3241		2.2386		2.2674		C.3		1		UNL1		-0.5350
10		C		-6.1696		0.2736		0.9172		C.ar		1		UNL1		0.2454
11		O		-5.5848		-0.5608		1.8737		O.3		1		UNL1		-0.5694
12		C		-4.2907		-0.9562		1.7216		C.ar		1		UNL1		0.5684
13		C		-3.7620		-1.7980		2.7123		C.ar		1		UNL1		-0.2202
14		C		-2.4450		-2.1794		2.5077		C.ar		1		UNL1		0.0596
15		N		-1.7053		-1.7918		1.4597		N.ar		1		UNL1		-0.4970
16		C		-2.3257		-0.9759		0.5874		C.ar		1		UNL1		0.6770
17		N		-1.6215		-0.5157		-0.4810		N.3		1		UNL1		-0.6530
18		C		-0.2725		-0.9385		-0.8316		C.3		1		UNL1		0.0750
19		C		0.4365		0.1713		-1.6367		C.3		1		UNL1		-0.3038
20		C		1.5880		-0.4160		-2.4986		C.3		1		UNL1		-0.1615
21		N		2.1976		-1.6126		-1.9228		N.3		1		UNL1		-0.3650
22		C		3.0260		-1.3840		-0.7650		C.3		1		UNL1		-0.2342
23		C		4.3612		-0.6993		-1.1168		C.2		1		UNL1		0.6219
24		O		4.7340		-0.4602		-2.2504		O.2		1		UNL1		-0.4786
25		N		5.0953		-0.3836		0.0162		N.am		1		UNL1		-0.7348
26		C		6.3590		0.2064		0.0915		C.ar		1		UNL1		0.3215
27		C		7.1349		0.6128		-1.0061		C.ar		1		UNL1		-0.1706
28		C		8.3839		1.1913		-0.8000		C.ar		1		UNL1		-0.1484
29		C		8.8906		1.3798		0.4956		C.ar		1		UNL1		0.1346
30		C		10.1765		1.9766		0.6950		C.1		1		UNL1		0.2337
31		N		11.2217		2.4619		0.8567		N.1		1		UNL1		-0.4755
32		C		8.1241		0.9774		1.6043		C.ar		1		UNL1		-0.2128
33		C		6.8908		0.4068		1.3772		C.ar		1		UNL1		0.3134
34		F		6.1322		0.0100		2.4318		F		1		UNL1		-0.3005
35		C		1.2335		-2.7230		-1.8321		C.3		1		UNL1		-0.1359
36		C		-0.2328		-2.2670		-1.6066		C.3		1		UNL1		-0.2910
37		N		-3.6080		-0.5401		0.6717		N.ar		1		UNL1		-0.5612
38		H		-7.5960		-2.1128		-1.0937		H		1		UNL1		0.1611
39		H		-5.9208		-2.2132		-0.5243		H		1		UNL1		0.1769
40		H		-7.2456		-2.3103		0.6356		H		1		UNL1		0.1761
41		H		-8.1168		0.0973		-1.8430		H		1		UNL1		0.1532
42		H		-6.7612		3.5519		0.3319		H		1		UNL1		0.1534
43		H		-5.4711		3.3203		2.3322		H		1		UNL1		0.1612
44		H		-5.6271		1.7906		3.2199		H		1		UNL1		0.1757
45		H		-4.2511		2.0481		2.1467		H		1		UNL1		0.1789
46		H		-4.3510		-2.1214		3.5607		H		1		UNL1		0.1499
47		H		-1.9485		-2.8372		3.2195		H		1		UNL1		0.1480
48		H		-2.1594		0.0169		-1.1512		H		1		UNL1		0.3311
49		H		0.2472		-1.0933		0.1188		H		1		UNL1		0.1659
50		H		-0.2832		0.6657		-2.3046		H		1		UNL1		0.1331
51		H		0.7989		0.9466		-0.9516		H		1		UNL1		0.1483
52		H		1.1997		-0.7000		-3.4843		H		1		UNL1		0.1500
53		H		2.3665		0.3282		-2.6810		H		1		UNL1		0.1718
54		H		3.2751		-2.3540		-0.3162		H		1		UNL1		0.1759
55		H		2.5494		-0.7907		0.0440		H		1		UNL1		0.1377
56		H		4.6855		-0.6117		0.9134		H		1		UNL1		0.3467
57		H		6.7453		0.4679		-2.0035		H		1		UNL1		0.2047
58		H		8.9763		1.5018		-1.6540		H		1		UNL1		0.1664
59		H		8.4803		1.1058		2.6199		H		1		UNL1		0.1756
60		H		1.5448		-3.3831		-1.0157		H		1		UNL1		0.1409
61		H		1.2879		-3.3164		-2.7556		H		1		UNL1		0.1498
62		H		-0.7457		-2.1337		-2.5687		H		1		UNL1		0.1332
63		H		-0.7844		-3.0342		-1.0539		H		1		UNL1		0.1592
@<TRIPOS>BOND
1		52		20		1
2		61		35		1
3		53		20		1
4		62		36		1
5		6		5		3
6		20		21		1
7		20		19		1
8		50		19		1
9		24		23		2
10		57		27		1
11		21		35		1
12		21		22		1
13		41		3		1
14		35		36		1
15		35		60		1
16		5		4		1
17		58		28		1
18		19		51		1
19		19		18		1
20		36		63		1
21		36		18		1
22		48		17		1
23		23		22		1
24		23		25		1
25		38		1		1
26		3		4		ar
27		3		2		ar
28		27		28		ar
29		27		26		ar
30		4		7		ar
31		18		17		1
32		18		49		1
33		28		29		ar
34		22		54		1
35		22		55		1
36		39		1		1
37		17		16		1
38		1		2		1
39		1		40		1
40		2		10		ar
41		25		26		1
42		25		56		1
43		26		33		ar
44		7		42		1
45		7		8		ar
46		29		30		1
47		29		32		ar
48		16		37		ar
49		16		15		ar
50		37		12		ar
51		30		31		3
52		10		8		ar
53		10		11		1
54		8		9		1
55		33		32		ar
56		33		34		1
57		15		14		ar
58		32		59		1
59		12		11		1
60		12		13		ar
61		45		9		1
62		9		43		1
63		9		44		1
64		14		13		ar
65		14		47		1
66		13		46		1

