@<TRIPOS>MOLECULE
WZY-2015-BMC-4248-3-3q
 49 51 0 0 0
SMALL
MULLIKEN_CHARGES
****
Gaussian 16 #p B3LYP/6-31G* opt
@<TRIPOS>ATOM
1		C		3.5609		-1.6077		2.0677		C.3		1		UNL1		-0.5627
2		C		4.4390		-1.8064		0.8529		C.ar		1		UNL1		0.1449
3		C		5.0918		-3.0247		0.6486		C.ar		1		UNL1		-0.2003
4		C		5.9112		-3.2422		-0.4591		C.ar		1		UNL1		-0.1201
5		C		6.0845		-2.2178		-1.3874		C.ar		1		UNL1		-0.1491
6		C		5.4490		-0.9887		-1.2164		C.ar		1		UNL1		-0.1622
7		C		4.6263		-0.7783		-0.1002		C.ar		1		UNL1		0.2830
8		N		3.9575		0.4476		0.1222		N.am		1		UNL1		-0.7351
9		C		3.9652		1.5838		-0.6389		C.2		1		UNL1		0.6324
10		O		4.5930		1.7480		-1.6747		O.2		1		UNL1		-0.4936
11		C		3.1544		2.7712		-0.0889		C.3		1		UNL1		-0.5312
12		S		1.8890		2.4756		1.2018		S.3		1		UNL1		0.1552
13		C		0.5707		1.7512		0.2450		C.ar		1		UNL1		0.2491
14		N		0.7299		1.6010		-1.0703		N.ar		1		UNL1		-0.4156
15		C		-0.3143		1.0555		-1.7109		C.ar		1		UNL1		0.0558
16		C		-1.4851		0.6686		-1.0728		C.ar		1		UNL1		-0.2025
17		C		-1.5148		0.8830		0.3148		C.ar		1		UNL1		0.5166
18		O		-2.5719		0.5659		1.1085		O.3		1		UNL1		-0.5232
19		C		-3.7225		0.0034		0.5547		C.ar		1		UNL1		0.1905
20		C		-4.7571		0.8650		0.1623		C.ar		1		UNL1		0.1736
21		C		-4.5982		2.3618		0.2606		C.3		1		UNL1		-0.5328
22		C		-5.9349		0.2832		-0.3097		C.ar		1		UNL1		-0.2272
23		C		-6.0680		-1.1117		-0.3764		C.ar		1		UNL1		0.1676
24		C		-7.2855		-1.6913		-0.8648		C.1		1		UNL1		0.2330
25		N		-8.2721		-2.1614		-1.2635		N.1		1		UNL1		-0.4746
26		C		-5.0169		-1.9412		0.0418		C.ar		1		UNL1		-0.2272
27		C		-3.8246		-1.3948		0.5194		C.ar		1		UNL1		0.1733
28		C		-2.6881		-2.2669		0.9918		C.3		1		UNL1		-0.5330
29		N		-0.4976		1.4189		0.9772		N.ar		1		UNL1		-0.4632
30		H		3.9181		-0.7917		2.7114		H		1		UNL1		0.1664
31		H		3.5412		-2.5140		2.6793		H		1		UNL1		0.1663
32		H		2.5207		-1.3761		1.7992		H		1		UNL1		0.1637
33		H		4.9513		-3.8177		1.3797		H		1		UNL1		0.1207
34		H		6.4066		-4.1999		-0.5915		H		1		UNL1		0.1252
35		H		6.7194		-2.3673		-2.2566		H		1		UNL1		0.1307
36		H		5.5789		-0.1887		-1.9314		H		1		UNL1		0.1865
37		H		3.3751		0.4924		0.9487		H		1		UNL1		0.3656
38		H		2.6895		3.2595		-0.9454		H		1		UNL1		0.2293
39		H		3.8565		3.4789		0.3662		H		1		UNL1		0.2071
40		H		-0.2004		0.9239		-2.7850		H		1		UNL1		0.1708
41		H		-2.3140		0.2293		-1.6128		H		1		UNL1		0.1689
42		H		-4.2836		2.6595		1.2663		H		1		UNL1		0.1895
43		H		-5.5389		2.8674		0.0268		H		1		UNL1		0.1668
44		H		-3.8357		2.7321		-0.4355		H		1		UNL1		0.1732
45		H		-6.7596		0.9152		-0.6235		H		1		UNL1		0.1600
46		H		-5.1359		-3.0193		-0.0020		H		1		UNL1		0.1600
47		H		-2.3672		-1.9839		1.9998		H		1		UNL1		0.1881
48		H		-2.9864		-3.3186		1.0047		H		1		UNL1		0.1670
49		H		-1.8117		-2.1745		0.3388		H		1		UNL1		0.1731
@<TRIPOS>BOND
1		40		15		1
2		35		5		1
3		36		6		1
4		15		16		ar
5		15		14		ar
6		10		9		2
7		41		16		1
8		5		6		ar
9		5		4		ar
10		25		24		3
11		6		7		ar
12		16		17		ar
13		14		13		ar
14		38		11		1
15		24		23		1
16		9		11		1
17		9		8		1
18		45		22		1
19		34		4		1
20		4		3		ar
21		44		21		1
22		23		22		ar
23		23		26		ar
24		22		20		ar
25		7		8		1
26		7		2		ar
27		11		39		1
28		11		12		1
29		46		26		1
30		43		21		1
31		26		27		ar
32		8		37		1
33		20		21		1
34		20		19		ar
35		13		29		ar
36		13		12		1
37		21		42		1
38		17		29		ar
39		17		18		1
40		49		28		1
41		27		19		ar
42		27		28		1
43		19		18		1
44		3		2		ar
45		3		33		1
46		2		1		1
47		28		48		1
48		28		47		1
49		32		1		1
50		1		31		1
51		1		30		1

