@<TRIPOS>MOLECULE
WZY-2015-EJMC-1-4-7u
 64 67 0 0 0
SMALL
MULLIKEN_CHARGES
****
Gaussian 16 #p B3LYP/6-31G* opt
@<TRIPOS>ATOM
1		C		-6.3494		-0.4346		2.3799		C.3		1		UNL1		-0.5336
2		C		-6.6050		0.2358		1.0540		C.ar		1		UNL1		0.1763
3		C		-7.1721		1.5080		0.9754		C.ar		1		UNL1		-0.2307
4		C		-7.3996		2.1144		-0.2690		C.ar		1		UNL1		0.1658
5		C		-7.9841		3.4222		-0.3317		C.1		1		UNL1		0.2287
6		N		-8.4566		4.4843		-0.3823		N.1		1		UNL1		-0.4820
7		C		-7.0612		1.4407		-1.4519		C.ar		1		UNL1		-0.2306
8		C		-6.4924		0.1674		-1.4086		C.ar		1		UNL1		0.1784
9		C		-6.1180		-0.5734		-2.6669		C.3		1		UNL1		-0.5349
10		C		-6.2744		-0.4031		-0.1480		C.ar		1		UNL1		0.2460
11		O		-5.8065		-1.7183		-0.0879		O.3		1		UNL1		-0.5697
12		C		-4.4663		-1.9545		-0.0315		C.ar		1		UNL1		0.5686
13		C		-4.0585		-3.2952		0.0343		C.ar		1		UNL1		-0.2207
14		C		-2.6859		-3.4818		0.1007		C.ar		1		UNL1		0.0608
15		N		-1.7929		-2.4836		0.1014		N.ar		1		UNL1		-0.4940
16		C		-2.3120		-1.2452		0.0213		C.ar		1		UNL1		0.6750
17		N		-1.4583		-0.1862		-0.0222		N.3		1		UNL1		-0.6521
18		C		-0.0170		-0.2754		0.1665		C.3		1		UNL1		0.0698
19		C		0.3975		-0.2275		1.6608		C.3		1		UNL1		-0.2851
20		C		1.8358		0.3244		1.8234		C.3		1		UNL1		-0.1552
21		N		2.7185		0.0182		0.6958		N.3		1		UNL1		-0.4173
22		C		3.1552		-1.3654		0.5930		C.3		1		UNL1		-0.2265
23		C		4.5926		-1.5273		0.0659		C.2		1		UNL1		0.5939
24		O		4.9908		-2.6092		-0.3397		O.2		1		UNL1		-0.4972
25		N		5.3273		-0.3639		0.1489		N.am		1		UNL1		-0.7613
26		C		6.6519		-0.1407		-0.2053		C.ar		1		UNL1		0.3521
27		C		7.4763		-1.1935		-0.6583		C.ar		1		UNL1		-0.1798
28		C		8.8011		-0.9703		-1.0048		C.ar		1		UNL1		-0.1247
29		C		9.3689		0.3061		-0.9175		C.ar		1		UNL1		-0.1347
30		C		8.5847		1.3590		-0.4797		C.ar		1		UNL1		-0.1692
31		C		7.2434		1.1526		-0.1281		C.ar		1		UNL1		0.2384
32		N		6.5123		2.3416		0.3077		N.pl3		1		UNL1		0.3766
33		O		5.3204		2.2323		0.6436		O.2		1		UNL1		-0.4384
34		O		7.1062		3.4182		0.3239		O.2		1		UNL1		-0.3931
35		C		2.2374		0.6200		-0.5675		C.3		1		UNL1		-0.1419
36		C		0.7039		0.8310		-0.6134		C.3		1		UNL1		-0.3099
37		N		-3.6307		-0.9325		-0.0392		N.ar		1		UNL1		-0.5616
38		H		-5.2744		-0.5655		2.5522		H		1		UNL1		0.1769
39		H		-6.8055		-1.4298		2.4170		H		1		UNL1		0.1762
40		H		-6.7542		0.1617		3.2022		H		1		UNL1		0.1607
41		H		-7.4425		2.0351		1.8851		H		1		UNL1		0.1528
42		H		-7.2461		1.9161		-2.4102		H		1		UNL1		0.1531
43		H		-5.0310		-0.6994		-2.7376		H		1		UNL1		0.1796
44		H		-6.5614		-1.5748		-2.6859		H		1		UNL1		0.1757
45		H		-6.4546		-0.0296		-3.5539		H		1		UNL1		0.1607
46		H		-4.7713		-4.1094		0.0395		H		1		UNL1		0.1495
47		H		-2.2715		-4.4870		0.1613		H		1		UNL1		0.1502
48		H		-1.9025		0.7211		0.0325		H		1		UNL1		0.3301
49		H		0.2725		-1.2450		-0.2475		H		1		UNL1		0.1769
50		H		0.3017		-1.2314		2.0890		H		1		UNL1		0.1577
51		H		-0.3003		0.4177		2.2104		H		1		UNL1		0.1356
52		H		2.2977		-0.0492		2.7433		H		1		UNL1		0.1503
53		H		1.8055		1.4167		1.9174		H		1		UNL1		0.1561
54		H		3.1480		-1.8167		1.5931		H		1		UNL1		0.1788
55		H		2.5243		-2.0077		-0.0407		H		1		UNL1		0.1695
56		H		4.8061		0.4395		0.5040		H		1		UNL1		0.4264
57		H		7.0406		-2.1798		-0.7277		H		1		UNL1		0.2051
58		H		9.4006		-1.8093		-1.3473		H		1		UNL1		0.1499
59		H		10.4062		0.4748		-1.1876		H		1		UNL1		0.1459
60		H		8.9800		2.3631		-0.3990		H		1		UNL1		0.1868
61		H		2.7444		1.5800		-0.7278		H		1		UNL1		0.1624
62		H		2.5386		-0.0381		-1.3902		H		1		UNL1		0.1507
63		H		0.4445		1.8085		-0.1822		H		1		UNL1		0.1391
64		H		0.3648		0.8465		-1.6550		H		1		UNL1		0.1571
@<TRIPOS>BOND
1		45		9		1
2		43		9		1
3		44		9		1
4		9		8		1
5		42		7		1
6		64		36		1
7		7		8		ar
8		7		4		ar
9		8		10		ar
10		62		35		1
11		58		28		1
12		59		29		1
13		28		29		ar
14		28		27		ar
15		29		30		ar
16		61		35		1
17		57		27		1
18		27		26		ar
19		36		35		1
20		36		63		1
21		36		18		1
22		35		21		1
23		30		60		1
24		30		31		ar
25		6		5		3
26		24		23		2
27		5		4		1
28		4		3		ar
29		49		18		1
30		26		31		ar
31		26		25		1
32		10		11		1
33		10		2		ar
34		31		32		1
35		11		12		1
36		55		22		1
37		37		12		ar
38		37		16		ar
39		12		13		ar
40		17		16		1
41		17		48		1
42		17		18		1
43		16		15		ar
44		13		46		1
45		13		14		ar
46		23		25		1
47		23		22		1
48		14		15		ar
49		14		47		1
50		25		56		1
51		18		19		1
52		32		34		2
53		32		33		2
54		22		21		1
55		22		54		1
56		21		20		1
57		3		2		ar
58		3		41		1
59		2		1		1
60		19		20		1
61		19		50		1
62		19		51		1
63		20		53		1
64		20		52		1
65		1		39		1
66		1		38		1
67		1		40		1

