@<TRIPOS>MOLECULE
WZY-2015-EJMC-1-4-7h
 62 65 0 0 0
SMALL
MULLIKEN_CHARGES
****
Gaussian 16 #p B3LYP/6-31G* opt
@<TRIPOS>ATOM
1		C		6.0584		-2.2026		-1.2791		C.3		1		UNL1		-0.5315
2		C		6.8645		-1.1575		-0.5492		C.ar		1		UNL1		0.1728
3		C		8.2076		-0.9267		-0.8501		C.ar		1		UNL1		-0.2282
4		C		8.9426		0.0410		-0.1491		C.ar		1		UNL1		0.1658
5		C		10.3215		0.2651		-0.4723		C.1		1		UNL1		0.2311
6		N		11.4397		0.4486		-0.7362		N.1		1		UNL1		-0.4787
7		C		8.3333		0.7843		0.8729		C.ar		1		UNL1		-0.2281
8		C		6.9921		0.5797		1.2001		C.ar		1		UNL1		0.1724
9		C		6.3196		1.3563		2.3045		C.3		1		UNL1		-0.5313
10		C		6.2839		-0.3853		0.4682		C.ar		1		UNL1		0.1988
11		O		4.9732		-0.6637		0.8410		O.3		1		UNL1		-0.5357
12		C		3.9338		0.0013		0.2512		C.ar		1		UNL1		0.5333
13		C		4.1062		0.9796		-0.7410		C.ar		1		UNL1		-0.2288
14		C		2.9259		1.5334		-1.2258		C.ar		1		UNL1		0.0583
15		N		1.7070		1.1903		-0.8033		N.ar		1		UNL1		-0.4899
16		C		1.6810		0.2478		0.1626		C.ar		1		UNL1		0.6772
17		N		0.4713		-0.1213		0.6644		N.3		1		UNL1		-0.6523
18		C		-0.8162		0.3168		0.1427		C.3		1		UNL1		0.0704
19		C		-1.2675		-0.4859		-1.0932		C.3		1		UNL1		-0.2710
20		C		-2.6645		-0.0285		-1.5481		C.3		1		UNL1		-0.1570
21		N		-3.6867		-0.0991		-0.4937		N.3		1		UNL1		-0.4075
22		C		-4.1740		-1.4434		-0.1884		C.3		1		UNL1		-0.2241
23		C		-5.6542		-1.4824		0.2336		C.2		1		UNL1		0.5850
24		O		-6.1139		-2.4529		0.8210		O.2		1		UNL1		-0.5089
25		N		-6.3539		-0.3755		-0.1588		N.am		1		UNL1		-0.7192
26		C		-7.7158		-0.0953		0.0128		C.ar		1		UNL1		0.3037
27		C		-8.6437		-0.9492		0.6272		C.ar		1		UNL1		-0.1677
28		C		-9.9796		-0.5581		0.7380		C.ar		1		UNL1		-0.1433
29		C		-10.4153		0.6728		0.2463		C.ar		1		UNL1		-0.1307
30		C		-9.5018		1.5334		-0.3686		C.ar		1		UNL1		-0.1991
31		C		-8.1812		1.1358		-0.4713		C.ar		1		UNL1		0.3088
32		F		-7.2753		1.9588		-1.0654		F		1		UNL1		-0.3058
33		C		-3.2623		0.6567		0.6965		C.3		1		UNL1		-0.1577
34		C		-1.8831		0.2417		1.2444		C.3		1		UNL1		-0.2912
35		N		2.7517		-0.3710		0.7070		N.ar		1		UNL1		-0.5412
36		H		5.2572		-1.7463		-1.8727		H		1		UNL1		0.1743
37		H		5.5806		-2.8930		-0.5760		H		1		UNL1		0.1855
38		H		6.6936		-2.7798		-1.9565		H		1		UNL1		0.1624
39		H		8.6919		-1.5044		-1.6313		H		1		UNL1		0.1563
40		H		8.9142		1.5226		1.4168		H		1		UNL1		0.1564
41		H		5.5322		2.0102		1.9109		H		1		UNL1		0.1749
42		H		7.0428		1.9810		2.8358		H		1		UNL1		0.1623
43		H		5.8439		0.6832		3.0255		H		1		UNL1		0.1858
44		H		5.0781		1.2792		-1.1099		H		1		UNL1		0.1543
45		H		2.9625		2.2957		-2.0029		H		1		UNL1		0.1499
46		H		0.4998		-0.8971		1.3126		H		1		UNL1		0.3318
47		H		-0.6883		1.3621		-0.1601		H		1		UNL1		0.1655
48		H		-0.5426		-0.3468		-1.9032		H		1		UNL1		0.1587
49		H		-1.2819		-1.5569		-0.8468		H		1		UNL1		0.1329
50		H		-2.6102		1.0173		-1.8813		H		1		UNL1		0.1494
51		H		-3.0079		-0.6165		-2.4060		H		1		UNL1		0.1490
52		H		-4.0935		-2.0625		-1.0903		H		1		UNL1		0.1765
53		H		-3.6164		-1.9709		0.5990		H		1		UNL1		0.1614
54		H		-5.7839		0.3278		-0.6233		H		1		UNL1		0.3598
55		H		-8.3003		-1.9020		1.0062		H		1		UNL1		0.1894
56		H		-10.6856		-1.2307		1.2165		H		1		UNL1		0.1355
57		H		-11.4565		0.9670		0.3371		H		1		UNL1		0.1348
58		H		-9.7944		2.4999		-0.7657		H		1		UNL1		0.1458
59		H		-3.2337		1.7196		0.4209		H		1		UNL1		0.1509
60		H		-4.0296		0.5503		1.4705		H		1		UNL1		0.1572
61		H		-1.9321		-0.7842		1.6384		H		1		UNL1		0.1365
62		H		-1.6066		0.8908		2.0839		H		1		UNL1		0.1541
@<TRIPOS>BOND
1		51		20		1
2		45		14		1
3		38		1		1
4		48		19		1
5		50		20		1
6		36		1		1
7		39		3		1
8		20		19		1
9		20		21		1
10		1		37		1
11		1		2		1
12		14		15		ar
13		14		13		ar
14		44		13		1
15		19		49		1
16		19		18		1
17		52		22		1
18		32		31		1
19		3		2		ar
20		3		4		ar
21		15		16		ar
22		58		30		1
23		13		12		ar
24		6		5		3
25		54		25		1
26		2		10		ar
27		21		22		1
28		21		33		1
29		5		4		1
30		31		30		ar
31		31		26		ar
32		30		29		ar
33		22		23		1
34		22		53		1
35		47		18		1
36		25		26		1
37		25		23		1
38		4		7		ar
39		26		27		ar
40		18		17		1
41		18		34		1
42		16		17		1
43		16		35		ar
44		23		24		2
45		29		57		1
46		29		28		ar
47		12		35		ar
48		12		11		1
49		59		33		1
50		10		11		1
51		10		8		ar
52		27		28		ar
53		27		55		1
54		17		46		1
55		33		34		1
56		33		60		1
57		28		56		1
58		7		8		ar
59		7		40		1
60		8		9		1
61		34		61		1
62		34		62		1
63		41		9		1
64		9		42		1
65		9		43		1

