@<TRIPOS>MOLECULE
XYZ-2008-EJMC-1230-8A
 44 47 0 0 0
SMALL
MULLIKEN_CHARGES
****
Gaussian 16 #p B3LYP/6-31G* opt
@<TRIPOS>ATOM
1		C		-2.7091		3.9288		0.4444		C.3		1		UNL1		-0.3122
2		N		-1.2697		3.7655		0.5261		N.3		1		UNL1		-0.6252
3		C		-0.5923		2.6251		0.2689		C.ar		1		UNL1		0.7014
4		N		0.7416		2.6671		0.4439		N.ar		1		UNL1		-0.5798
5		C		1.3656		1.5111		0.1710		C.ar		1		UNL1		0.7215
6		N		2.7270		1.5588		0.3522		N.pl3		1		UNL1		-0.7770
7		C		3.7338		0.6039		0.1843		C.ar		1		UNL1		0.3800
8		C		5.0489		1.0187		0.4748		C.ar		1		UNL1		-0.2058
9		C		6.1172		0.1474		0.3396		C.ar		1		UNL1		-0.1407
10		C		5.9003		-1.1726		-0.0929		C.ar		1		UNL1		0.1318
11		C		6.9989		-2.0786		-0.2347		C.1		1		UNL1		0.2278
12		N		7.8943		-2.8137		-0.3492		N.1		1		UNL1		-0.4851
13		C		4.5892		-1.5856		-0.3825		C.ar		1		UNL1		-0.1548
14		C		3.5134		-0.7165		-0.2489		C.ar		1		UNL1		-0.1606
15		N		0.7872		0.3749		-0.2424		N.ar		1		UNL1		-0.5455
16		C		-0.5368		0.4809		-0.3747		C.ar		1		UNL1		0.6804
17		O		-1.1201		-0.6650		-0.7898		O.3		1		UNL1		-0.5419
18		C		-2.5055		-0.7103		-0.9788		C.ar		1		UNL1		0.2852
19		C		-3.0402		-0.3064		-2.1769		C.ar		1		UNL1		-0.1524
20		C		-4.4313		-0.4345		-2.3993		C.ar		1		UNL1		-0.1521
21		C		-5.2475		-0.9648		-1.4263		C.ar		1		UNL1		-0.1795
22		C		-4.7100		-1.3996		-0.1852		C.ar		1		UNL1		0.1207
23		C		-5.5239		-1.9597		0.8363		C.ar		1		UNL1		-0.1960
24		C		-4.9764		-2.3799		2.0270		C.ar		1		UNL1		-0.1304
25		C		-3.5830		-2.2633		2.2524		C.ar		1		UNL1		-0.1367
26		C		-2.7616		-1.7248		1.2877		C.ar		1		UNL1		-0.1878
27		C		-3.3013		-1.2767		0.0531		C.ar		1		UNL1		0.1171
28		N		-1.2914		1.5436		-0.1442		N.ar		1		UNL1		-0.5372
29		H		-3.1302		3.0335		-0.0121		H		1		UNL1		0.2160
30		H		-2.9604		4.7996		-0.1715		H		1		UNL1		0.1604
31		H		-3.1530		4.0613		1.4391		H		1		UNL1		0.1626
32		H		-0.6980		4.5305		0.8557		H		1		UNL1		0.3382
33		H		3.0288		2.4726		0.6662		H		1		UNL1		0.3454
34		H		5.2284		2.0376		0.8101		H		1		UNL1		0.1357
35		H		7.1242		0.4817		0.5672		H		1		UNL1		0.1572
36		H		4.4130		-2.6029		-0.7172		H		1		UNL1		0.1599
37		H		2.5077		-1.0415		-0.4736		H		1		UNL1		0.2010
38		H		-2.3893		0.1070		-2.9404		H		1		UNL1		0.1417
39		H		-4.8486		-0.1110		-3.3486		H		1		UNL1		0.1363
40		H		-6.3164		-1.0643		-1.5975		H		1		UNL1		0.1314
41		H		-6.5924		-2.0528		0.6575		H		1		UNL1		0.1323
42		H		-5.6117		-2.8074		2.7979		H		1		UNL1		0.1329
43		H		-3.1608		-2.6053		3.1933		H		1		UNL1		0.1342
44		H		-1.6924		-1.6469		1.4538		H		1		UNL1		0.1496
@<TRIPOS>BOND
1		39		20		1
2		38		19		1
3		20		19		ar
4		20		21		ar
5		19		18		ar
6		40		21		1
7		21		22		ar
8		18		17		1
9		18		27		ar
10		17		16		1
11		36		13		1
12		37		14		1
13		13		14		ar
14		13		10		ar
15		16		15		ar
16		16		28		ar
17		12		11		3
18		14		7		ar
19		15		5		ar
20		11		10		1
21		22		27		ar
22		22		23		ar
23		30		1		1
24		28		3		ar
25		10		9		ar
26		29		1		1
27		27		26		ar
28		5		6		1
29		5		4		ar
30		7		6		1
31		7		8		ar
32		3		4		ar
33		3		2		1
34		9		8		ar
35		9		35		1
36		6		33		1
37		1		2		1
38		1		31		1
39		8		34		1
40		2		32		1
41		41		23		1
42		23		24		ar
43		26		44		1
44		26		25		ar
45		24		25		ar
46		24		42		1
47		25		43		1

