@<TRIPOS>MOLECULE
XYZ-2009-CB-561-10D
 47 49 0 0 0
SMALL
MULLIKEN_CHARGES
****
Gaussian 16 #p B3LYP/6-31G* opt
@<TRIPOS>ATOM
1		C		-2.4779		5.2186		1.4446		C.3		1		UNL1		-0.4512
2		C		-2.9230		3.9675		0.6821		C.3		1		UNL1		-0.2522
3		C		-2.2738		3.8244		-0.7037		C.3		1		UNL1		-0.1311
4		N		-0.8232		3.6894		-0.6730		N.3		1		UNL1		-0.6294
5		C		-0.1415		2.5373		-0.4876		C.ar		1		UNL1		0.7004
6		N		-0.8440		1.3879		-0.3642		N.ar		1		UNL1		-0.5686
7		C		-0.0768		0.3086		-0.2089		C.ar		1		UNL1		0.7213
8		N		-0.6449		-0.9372		-0.0750		N.pl3		1		UNL1		-0.7860
9		C		-1.9696		-1.3545		-0.0628		C.ar		1		UNL1		0.3239
10		C		-3.1044		-0.5347		-0.1791		C.ar		1		UNL1		-0.1667
11		C		-4.3793		-1.0909		-0.1488		C.ar		1		UNL1		-0.1520
12		C		-4.5641		-2.4745		-0.0019		C.ar		1		UNL1		0.1336
13		C		-5.8806		-3.0345		0.0280		C.1		1		UNL1		0.2307
14		N		-6.9526		-3.4871		0.0521		N.1		1		UNL1		-0.4793
15		C		-3.4383		-3.3103		0.1168		C.ar		1		UNL1		-0.2151
16		C		-2.1859		-2.7392		0.0841		C.ar		1		UNL1		0.3161
17		F		-1.0898		-3.5302		0.1979		F		1		UNL1		-0.2974
18		N		1.2693		0.2817		-0.1607		N.ar		1		UNL1		-0.5542
19		C		1.8257		1.4852		-0.2879		C.ar		1		UNL1		0.6729
20		O		3.1695		1.5900		-0.2515		O.3		1		UNL1		-0.5378
21		C		3.9502		0.4400		-0.0835		C.ar		1		UNL1		0.3512
22		C		4.3267		0.0510		1.1978		C.ar		1		UNL1		-0.1421
23		C		5.1885		-1.0342		1.3520		C.ar		1		UNL1		-0.1954
24		C		5.6809		-1.7367		0.2437		C.ar		1		UNL1		0.1872
25		C		6.5913		-2.9298		0.4225		C.3		1		UNL1		-0.5312
26		C		5.2901		-1.3122		-1.0331		C.ar		1		UNL1		-0.1961
27		C		4.4288		-0.2288		-1.2049		C.ar		1		UNL1		-0.1425
28		N		1.2018		2.6459		-0.4527		N.ar		1		UNL1		-0.5363
29		H		-1.3967		5.2121		1.6243		H		1		UNL1		0.1510
30		H		-2.9728		5.2822		2.4196		H		1		UNL1		0.1542
31		H		-2.7220		6.1328		0.8885		H		1		UNL1		0.1411
32		H		-4.0123		3.9864		0.5405		H		1		UNL1		0.1376
33		H		-2.6970		3.0685		1.2682		H		1		UNL1		0.1574
34		H		-2.5002		4.7050		-1.3165		H		1		UNL1		0.1480
35		H		-2.6813		2.9524		-1.2223		H		1		UNL1		0.1747
36		H		-0.2406		4.5132		-0.7225		H		1		UNL1		0.3442
37		H		0.0463		-1.6694		0.0316		H		1		UNL1		0.3623
38		H		-2.9637		0.5303		-0.2912		H		1		UNL1		0.2013
39		H		-5.2465		-0.4453		-0.2398		H		1		UNL1		0.1589
40		H		-3.5360		-4.3836		0.2321		H		1		UNL1		0.1738
41		H		3.9540		0.6001		2.0568		H		1		UNL1		0.1404
42		H		5.4866		-1.3368		2.3532		H		1		UNL1		0.1285
43		H		7.2261		-2.8211		1.3085		H		1		UNL1		0.1589
44		H		7.2445		-3.0693		-0.4453		H		1		UNL1		0.1582
45		H		6.0149		-3.8562		0.5482		H		1		UNL1		0.1672
46		H		5.6681		-1.8335		-1.9094		H		1		UNL1		0.1287
47		H		4.1350		0.1049		-2.1951		H		1		UNL1		0.1410
@<TRIPOS>BOND
1		47		27		1
2		46		26		1
3		34		3		1
4		35		3		1
5		27		26		ar
6		27		21		ar
7		26		24		ar
8		36		4		1
9		3		4		1
10		3		2		1
11		4		5		1
12		5		28		ar
13		5		6		ar
14		28		19		ar
15		44		25		1
16		6		7		ar
17		38		10		1
18		19		20		1
19		19		18		ar
20		20		21		1
21		39		11		1
22		7		18		ar
23		7		8		1
24		10		11		ar
25		10		9		ar
26		11		12		ar
27		21		22		ar
28		8		9		1
29		8		37		1
30		9		16		ar
31		12		13		1
32		12		15		ar
33		13		14		3
34		16		15		ar
35		16		17		1
36		15		40		1
37		24		25		1
38		24		23		ar
39		25		45		1
40		25		43		1
41		32		2		1
42		2		33		1
43		2		1		1
44		31		1		1
45		22		23		ar
46		22		41		1
47		23		42		1
48		1		29		1
49		1		30		1

