@<TRIPOS>MOLECULE
XYZ-2008-EJMC-1230-9E
 50 53 0 0 0
SMALL
MULLIKEN_CHARGES
****
Gaussian 16 #p B3LYP/6-31G* opt
@<TRIPOS>ATOM
1		C		7.9046		1.5611		-0.5872		C.3		1		UNL1		-0.4616
2		C		6.6435		1.5122		0.2796		C.3		1		UNL1		0.0555
3		C		6.9477		1.7405		1.7670		C.3		1		UNL1		-0.4382
4		N		5.9673		0.2302		0.0611		N.3		1		UNL1		-0.6415
5		C		4.6397		0.0154		0.1733		C.ar		1		UNL1		0.7084
6		N		4.2164		-1.2546		0.0055		N.ar		1		UNL1		-0.5800
7		C		2.8914		-1.4097		0.1086		C.ar		1		UNL1		0.7235
8		N		2.4644		-2.7043		-0.0598		N.pl3		1		UNL1		-0.7787
9		C		1.1954		-3.2908		-0.0501		C.ar		1		UNL1		0.3792
10		C		1.1479		-4.6894		-0.2157		C.ar		1		UNL1		-0.2046
11		C		-0.0614		-5.3649		-0.2258		C.ar		1		UNL1		-0.1407
12		C		-1.2661		-4.6573		-0.0695		C.ar		1		UNL1		0.1322
13		C		-2.5188		-5.3491		-0.0772		C.1		1		UNL1		0.2284
14		N		-3.5363		-5.9147		-0.0832		N.1		1		UNL1		-0.4840
15		C		-1.2185		-3.2630		0.0937		C.ar		1		UNL1		-0.1587
16		C		-0.0086		-2.5800		0.1043		C.ar		1		UNL1		-0.1587
17		N		1.9981		-0.4365		0.3578		N.ar		1		UNL1		-0.5474
18		C		2.5603		0.7627		0.4968		C.ar		1		UNL1		0.6879
19		O		1.7537		1.8227		0.7576		O.3		1		UNL1		-0.5339
20		C		0.3818		1.6377		0.8335		C.ar		1		UNL1		0.3295
21		C		-0.1944		1.5521		2.1200		C.ar		1		UNL1		-0.1502
22		C		-1.5573		1.4723		2.2619		C.ar		1		UNL1		-0.2001
23		C		-2.4058		1.4748		1.1234		C.ar		1		UNL1		0.1520
24		C		-3.8171		1.3928		1.2598		C.ar		1		UNL1		-0.2263
25		C		-4.6188		1.3993		0.1453		C.ar		1		UNL1		0.0839
26		BR		-6.5160		1.2899		0.3336		Br		1		UNL1		-0.1176
27		C		-4.0677		1.4855		-1.1527		C.ar		1		UNL1		-0.1501
28		C		-2.7035		1.5663		-1.3102		C.ar		1		UNL1		-0.1872
29		C		-1.8310		1.5650		-0.1893		C.ar		1		UNL1		0.0930
30		C		-0.4119		1.6503		-0.2940		C.ar		1		UNL1		-0.0080
31		BR		0.4293		1.7773		-1.9961		Br		1		UNL1		-0.0956
32		N		3.8427		1.0769		0.4299		N.ar		1		UNL1		-0.5349
33		H		8.6153		0.7757		-0.2968		H		1		UNL1		0.1410
34		H		8.4115		2.5237		-0.4656		H		1		UNL1		0.1594
35		H		7.6615		1.4307		-1.6468		H		1		UNL1		0.1612
36		H		5.9439		2.2835		-0.0539		H		1		UNL1		0.1814
37		H		7.4195		2.7185		1.9166		H		1		UNL1		0.1476
38		H		6.0244		1.7129		2.3533		H		1		UNL1		0.1683
39		H		7.6287		0.9712		2.1515		H		1		UNL1		0.1382
40		H		6.5257		-0.6032		-0.0688		H		1		UNL1		0.3321
41		H		3.2417		-3.3316		-0.2249		H		1		UNL1		0.3464
42		H		2.0737		-5.2472		-0.3363		H		1		UNL1		0.1369
43		H		-0.0815		-6.4423		-0.3538		H		1		UNL1		0.1581
44		H		-2.1437		-2.7079		0.2118		H		1		UNL1		0.1621
45		H		0.0175		-1.5076		0.2288		H		1		UNL1		0.1998
46		H		0.4683		1.5578		2.9790		H		1		UNL1		0.1557
47		H		-2.0030		1.4067		3.2503		H		1		UNL1		0.1492
48		H		-4.2514		1.3255		2.2519		H		1		UNL1		0.1592
49		H		-4.7240		1.4865		-2.0159		H		1		UNL1		0.1616
50		H		-2.2791		1.6315		-2.3054		H		1		UNL1		0.1669
@<TRIPOS>BOND
1		50		28		1
2		49		27		1
3		31		30		1
4		35		1		1
5		28		27		ar
6		28		29		ar
7		27		25		ar
8		1		34		1
9		1		33		1
10		1		2		1
11		43		11		1
12		42		10		1
13		30		29		ar
14		30		20		ar
15		11		10		ar
16		11		12		ar
17		41		8		1
18		10		9		ar
19		29		23		ar
20		14		13		3
21		13		12		1
22		12		15		ar
23		40		4		1
24		8		9		1
25		8		7		1
26		36		2		1
27		9		16		ar
28		6		7		ar
29		6		5		ar
30		4		5		1
31		4		2		1
32		15		16		ar
33		15		44		1
34		16		45		1
35		7		17		ar
36		25		26		1
37		25		24		ar
38		5		32		ar
39		2		3		1
40		17		18		ar
41		32		18		ar
42		18		19		1
43		19		20		1
44		20		21		ar
45		23		24		ar
46		23		22		ar
47		24		48		1
48		3		37		1
49		3		39		1
50		3		38		1
51		21		22		ar
52		21		46		1
53		22		47		1

