@<TRIPOS>MOLECULE
XYZ-2008-EJMC-1230-9B
 41 44 0 0 0
SMALL
MULLIKEN_CHARGES
****
Gaussian 16 #p B3LYP/6-31G* opt
@<TRIPOS>ATOM
1		N		9.4099		0.5143		-0.3819		N.1		1		UNL1		-0.4836
2		C		8.2771		0.2666		-0.2789		C.1		1		UNL1		0.2280
3		C		6.8845		-0.0378		-0.1526		C.ar		1		UNL1		0.1322
4		C		6.4635		-1.3478		0.1363		C.ar		1		UNL1		-0.1403
5		C		5.1136		-1.6340		0.2565		C.ar		1		UNL1		-0.2044
6		C		4.1418		-0.6265		0.0929		C.ar		1		UNL1		0.3818
7		N		2.8079		-1.0149		0.2350		N.pl3		1		UNL1		-0.7768
8		C		1.6228		-0.3274		0.1363		C.ar		1		UNL1		0.7169
9		N		1.6147		0.9769		-0.1546		N.ar		1		UNL1		-0.5501
10		C		0.3784		1.5082		-0.2163		C.ar		1		UNL1		0.6690
11		N		0.2861		2.8308		-0.4827		N.3		1		UNL1		-0.7702
12		N		-0.7777		0.8462		-0.0221		N.ar		1		UNL1		-0.5254
13		C		-0.6086		-0.4431		0.2588		C.ar		1		UNL1		0.6729
14		O		-1.6930		-1.2186		0.4622		O.3		1		UNL1		-0.5352
15		C		-2.9719		-0.6548		0.4633		C.ar		1		UNL1		0.3542
16		C		-3.3693		0.1931		1.5232		C.ar		1		UNL1		-0.1340
17		C		-4.6634		0.6534		1.5657		C.ar		1		UNL1		-0.2101
18		C		-5.6090		0.2885		0.5681		C.ar		1		UNL1		0.1468
19		C		-6.9520		0.7495		0.5903		C.ar		1		UNL1		-0.1940
20		C		-7.8436		0.3735		-0.3893		C.ar		1		UNL1		-0.1347
21		C		-7.4306		-0.4842		-1.4379		C.ar		1		UNL1		-0.1361
22		C		-6.1357		-0.9500		-1.4878		C.ar		1		UNL1		-0.1894
23		C		-5.1914		-0.5795		-0.4932		C.ar		1		UNL1		0.1277
24		C		-3.8481		-1.0413		-0.5183		C.ar		1		UNL1		-0.2363
25		N		0.5422		-1.1017		0.3579		N.ar		1		UNL1		-0.5484
26		C		4.5608		0.6848		-0.1956		C.ar		1		UNL1		-0.1544
27		C		5.9160		0.9663		-0.3151		C.ar		1		UNL1		-0.1530
28		H		7.1996		-2.1346		0.2649		H		1		UNL1		0.1597
29		H		4.7995		-2.6508		0.4799		H		1		UNL1		0.1410
30		H		2.6480		-1.9906		0.4543		H		1		UNL1		0.3523
31		H		-0.6254		3.2228		-0.6628		H		1		UNL1		0.3554
32		H		1.1125		3.3323		-0.7683		H		1		UNL1		0.3503
33		H		-2.6480		0.4657		2.2860		H		1		UNL1		0.1432
34		H		-4.9812		1.3056		2.3755		H		1		UNL1		0.1364
35		H		-7.2656		1.4069		1.3980		H		1		UNL1		0.1314
36		H		-8.8685		0.7332		-0.3610		H		1		UNL1		0.1320
37		H		-8.1426		-0.7751		-2.2056		H		1		UNL1		0.1327
38		H		-5.8177		-1.6092		-2.2919		H		1		UNL1		0.1331
39		H		-3.5117		-1.7054		-1.3089		H		1		UNL1		0.1432
40		H		3.8205		1.4610		-0.3214		H		1		UNL1		0.1793
41		H		6.2332		1.9803		-0.5376		H		1		UNL1		0.1568
@<TRIPOS>BOND
1		38		22		1
2		37		21		1
3		22		21		ar
4		22		23		ar
5		21		20		ar
6		39		24		1
7		32		11		1
8		31		11		1
9		41		27		1
10		24		23		ar
11		24		15		ar
12		23		18		ar
13		11		10		1
14		20		36		1
15		20		19		ar
16		1		2		3
17		40		26		1
18		27		26		ar
19		27		3		ar
20		2		3		1
21		10		9		ar
22		10		12		ar
23		26		6		ar
24		9		8		ar
25		3		4		ar
26		12		13		ar
27		6		7		1
28		6		5		ar
29		8		7		1
30		8		25		ar
31		4		5		ar
32		4		28		1
33		7		30		1
34		5		29		1
35		13		25		ar
36		13		14		1
37		14		15		1
38		15		16		ar
39		18		19		ar
40		18		17		ar
41		19		35		1
42		16		17		ar
43		16		33		1
44		17		34		1

