@<TRIPOS>MOLECULE
XYZ-2008-EJMC-1230-9L
 50 53 0 0 0
SMALL
MULLIKEN_CHARGES
****
Gaussian 16 #p B3LYP/6-31G* opt
@<TRIPOS>ATOM
1		C		0.6107		4.7071		-1.3035		C.3		1		UNL1		-0.4412
2		C		1.0427		4.6403		0.1650		C.3		1		UNL1		-0.2873
3		C		1.4899		3.2471		0.6201		C.3		1		UNL1		-0.1027
4		N		0.3831		2.3007		0.5815		N.3		1		UNL1		-0.6420
5		C		0.4921		0.9595		0.4817		C.ar		1		UNL1		0.7087
6		N		1.7197		0.4189		0.3473		N.ar		1		UNL1		-0.5669
7		C		1.7124		-0.9124		0.2297		C.ar		1		UNL1		0.7195
8		N		2.8887		-1.6068		0.0770		N.pl3		1		UNL1		-0.7785
9		C		4.2243		-1.2054		0.0209		C.ar		1		UNL1		0.3815
10		C		5.1785		-2.2143		-0.2207		C.ar		1		UNL1		-0.2033
11		C		6.5294		-1.9160		-0.2866		C.ar		1		UNL1		-0.1408
12		C		6.9699		-0.5922		-0.1119		C.ar		1		UNL1		0.1322
13		C		8.3635		-0.2748		-0.1792		C.1		1		UNL1		0.2277
14		N		9.4972		-0.0159		-0.2338		N.1		1		UNL1		-0.4842
15		C		6.0192		0.4129		0.1308		C.ar		1		UNL1		-0.1562
16		C		4.6631		0.1192		0.1986		C.ar		1		UNL1		-0.1596
17		N		0.6276		-1.7112		0.2435		N.ar		1		UNL1		-0.5505
18		C		-0.5108		-1.0410		0.3904		C.ar		1		UNL1		0.6872
19		O		-1.6071		-1.8378		0.4091		O.3		1		UNL1		-0.5337
20		C		-2.8599		-1.2637		0.5717		C.ar		1		UNL1		0.3611
21		C		-3.3500		-1.0791		1.8832		C.ar		1		UNL1		-0.1403
22		C		-4.6243		-0.6100		2.0809		C.ar		1		UNL1		-0.2072
23		C		-5.4677		-0.3068		0.9795		C.ar		1		UNL1		0.1543
24		C		-6.7895		0.1773		1.1678		C.ar		1		UNL1		-0.1964
25		C		-7.6000		0.4652		0.0942		C.ar		1		UNL1		-0.1310
26		C		-7.1185		0.2788		-1.2228		C.ar		1		UNL1		-0.1337
27		C		-5.8427		-0.1896		-1.4453		C.ar		1		UNL1		-0.1947
28		C		-4.9813		-0.4956		-0.3583		C.ar		1		UNL1		0.1227
29		C		-3.6502		-0.9838		-0.5229		C.ar		1		UNL1		-0.1870
30		CL		-2.9950		-1.2367		-2.1276		Cl		1		UNL1		0.0127
31		N		-0.6704		0.2677		0.5200		N.ar		1		UNL1		-0.5453
32		H		-0.2306		4.0362		-1.5083		H		1		UNL1		0.1559
33		H		1.4334		4.4165		-1.9675		H		1		UNL1		0.1517
34		H		0.3036		5.7227		-1.5750		H		1		UNL1		0.1517
35		H		1.8786		5.3291		0.3392		H		1		UNL1		0.1511
36		H		0.2265		4.9885		0.8151		H		1		UNL1		0.1381
37		H		1.9106		3.3004		1.6351		H		1		UNL1		0.1518
38		H		2.2783		2.8667		-0.0359		H		1		UNL1		0.1781
39		H		-0.5571		2.6358		0.7448		H		1		UNL1		0.3412
40		H		2.7165		-2.6001		-0.0198		H		1		UNL1		0.3524
41		H		4.8491		-3.2413		-0.3594		H		1		UNL1		0.1412
42		H		7.2516		-2.7039		-0.4743		H		1		UNL1		0.1593
43		H		6.3516		1.4369		0.2695		H		1		UNL1		0.1555
44		H		3.9367		0.8954		0.3884		H		1		UNL1		0.1909
45		H		-2.6963		-1.3238		2.7138		H		1		UNL1		0.1488
46		H		-5.0047		-0.4683		3.0889		H		1		UNL1		0.1410
47		H		-7.1494		0.3156		2.1845		H		1		UNL1		0.1353
48		H		-8.6090		0.8348		0.2539		H		1		UNL1		0.1358
49		H		-7.7620		0.5070		-2.0679		H		1		UNL1		0.1372
50		H		-5.4821		-0.3300		-2.4579		H		1		UNL1		0.1579
@<TRIPOS>BOND
1		50		27		1
2		30		29		1
3		49		26		1
4		33		1		1
5		34		1		1
6		32		1		1
7		27		26		ar
8		27		28		ar
9		1		2		1
10		26		25		ar
11		29		28		ar
12		29		20		ar
13		42		11		1
14		41		10		1
15		28		23		ar
16		11		10		ar
17		11		12		ar
18		14		13		3
19		10		9		ar
20		13		12		1
21		12		15		ar
22		38		3		1
23		40		8		1
24		9		8		1
25		9		16		ar
26		8		7		1
27		25		48		1
28		25		24		ar
29		15		16		ar
30		15		43		1
31		2		35		1
32		2		3		1
33		2		36		1
34		16		44		1
35		7		17		ar
36		7		6		ar
37		17		18		ar
38		6		5		ar
39		18		19		1
40		18		31		ar
41		19		20		1
42		5		31		ar
43		5		4		1
44		20		21		ar
45		4		3		1
46		4		39		1
47		3		37		1
48		23		24		ar
49		23		22		ar
50		24		47		1
51		21		22		ar
52		21		45		1
53		22		46		1

