@<TRIPOS>MOLECULE
XYZ-2009-CB-561-8N
 50 53 0 0 0
SMALL
MULLIKEN_CHARGES
****
Gaussian 16 #p B3LYP/6-31G* opt
@<TRIPOS>ATOM
1		C		2.9321		4.1982		0.6046		C.3		1		UNL1		-0.4501
2		C		1.5724		3.4994		0.6971		C.3		1		UNL1		-0.2540
3		C		1.0043		3.1581		-0.6878		C.3		1		UNL1		-0.1245
4		N		-0.2981		2.5031		-0.6415		N.3		1		UNL1		-0.6354
5		C		-0.4866		1.1731		-0.5054		C.ar		1		UNL1		0.7078
6		N		-1.7659		0.7551		-0.3634		N.ar		1		UNL1		-0.5709
7		C		-1.8916		-0.5671		-0.2510		C.ar		1		UNL1		0.7269
8		N		-3.1326		-1.1390		-0.1015		N.pl3		1		UNL1		-0.7837
9		C		-4.4049		-0.5846		-0.0382		C.ar		1		UNL1		0.3240
10		C		-4.7262		0.7802		-0.1265		C.ar		1		UNL1		-0.1580
11		C		-6.0514		1.1963		-0.0480		C.ar		1		UNL1		-0.1490
12		C		-7.0937		0.2714		0.1199		C.ar		1		UNL1		0.1336
13		C		-8.4528		0.7123		0.1991		C.1		1		UNL1		0.2307
14		N		-9.5570		1.0745		0.2631		N.1		1		UNL1		-0.4793
15		C		-6.7896		-1.0995		0.2098		C.ar		1		UNL1		-0.2149
16		C		-5.4715		-1.4898		0.1298		C.ar		1		UNL1		0.3162
17		F		-5.1605		-2.8070		0.2141		F		1		UNL1		-0.2967
18		N		-0.8914		-1.4722		-0.2653		N.ar		1		UNL1		-0.5478
19		C		0.3056		-0.9187		-0.4069		C.ar		1		UNL1		0.6837
20		O		1.3209		-1.8153		-0.4194		O.3		1		UNL1		-0.5319
21		C		2.6235		-1.3642		-0.5810		C.ar		1		UNL1		0.3599
22		C		3.1448		-1.2842		-1.8909		C.ar		1		UNL1		-0.1423
23		C		4.4588		-0.9404		-2.0878		C.ar		1		UNL1		-0.2072
24		C		5.3117		-0.6638		-0.9867		C.ar		1		UNL1		0.1537
25		C		6.6742		-0.3090		-1.1741		C.ar		1		UNL1		-0.1964
26		C		7.4935		-0.0461		-0.1006		C.ar		1		UNL1		-0.1310
27		C		6.9802		-0.1284		1.2150		C.ar		1		UNL1		-0.1336
28		C		5.6647		-0.4700		1.4367		C.ar		1		UNL1		-0.1952
29		C		4.7931		-0.7470		0.3498		C.ar		1		UNL1		0.1221
30		C		3.4216		-1.1065		0.5135		C.ar		1		UNL1		-0.1858
31		CL		2.7255		-1.2256		2.1166		Cl		1		UNL1		0.0129
32		N		0.5961		0.3710		-0.5340		N.ar		1		UNL1		-0.5390
33		H		2.8632		5.1376		0.0419		H		1		UNL1		0.1417
34		H		3.3203		4.4358		1.6006		H		1		UNL1		0.1527
35		H		3.6710		3.5619		0.1032		H		1		UNL1		0.1552
36		H		0.8576		4.1376		1.2344		H		1		UNL1		0.1311
37		H		1.6644		2.5708		1.2727		H		1		UNL1		0.1644
38		H		1.6888		2.4922		-1.2189		H		1		UNL1		0.1865
39		H		0.8921		4.0685		-1.2888		H		1		UNL1		0.1449
40		H		-1.1308		3.0651		-0.5330		H		1		UNL1		0.3363
41		H		-3.0884		-2.1475		-0.0208		H		1		UNL1		0.3635
42		H		-3.9250		1.4930		-0.2556		H		1		UNL1		0.1840
43		H		-6.2847		2.2535		-0.1177		H		1		UNL1		0.1590
44		H		-7.5638		-1.8469		0.3396		H		1		UNL1		0.1743
45		H		2.4824		-1.5081		-2.7206		H		1		UNL1		0.1506
46		H		4.8633		-0.8796		-3.0944		H		1		UNL1		0.1422
47		H		7.0582		-0.2502		-2.1896		H		1		UNL1		0.1362
48		H		8.5337		0.2238		-0.2595		H		1		UNL1		0.1366
49		H		7.6310		0.0792		2.0599		H		1		UNL1		0.1379
50		H		5.2803		-0.5318		2.4483		H		1		UNL1		0.1581
@<TRIPOS>BOND
1		46		23		1
2		45		22		1
3		47		25		1
4		23		22		ar
5		23		24		ar
6		22		21		ar
7		39		3		1
8		38		3		1
9		25		24		ar
10		25		26		ar
11		24		29		ar
12		3		4		1
13		3		2		1
14		4		40		1
15		4		5		1
16		21		20		1
17		21		30		ar
18		32		5		ar
19		32		19		ar
20		5		6		ar
21		20		19		1
22		19		18		ar
23		6		7		ar
24		18		7		ar
25		48		26		1
26		42		10		1
27		7		8		1
28		10		11		ar
29		10		9		ar
30		43		11		1
31		8		9		1
32		8		41		1
33		26		27		ar
34		11		12		ar
35		9		16		ar
36		33		1		1
37		35		1		1
38		12		13		1
39		12		15		ar
40		16		15		ar
41		16		17		1
42		13		14		3
43		15		44		1
44		29		30		ar
45		29		28		ar
46		30		31		1
47		1		2		1
48		1		34		1
49		2		36		1
50		2		37		1
51		27		28		ar
52		27		49		1
53		28		50		1

