@<TRIPOS>MOLECULE
XYZ-2008-EJMC-1230-8E
 41 44 0 0 0
SMALL
MULLIKEN_CHARGES
****
Gaussian 16 #p B3LYP/6-31G* opt
@<TRIPOS>ATOM
1		N		8.1374		-3.0511		-0.7156		N.1		1		UNL1		-0.4833
2		C		7.2971		-2.2659		-0.5357		C.1		1		UNL1		0.2288
3		C		6.2660		-1.2985		-0.3132		C.ar		1		UNL1		0.1326
4		C		6.5879		-0.0053		0.1340		C.ar		1		UNL1		-0.1404
5		C		5.5845		0.9256		0.3477		C.ar		1		UNL1		-0.2053
6		C		4.2328		0.5977		0.1232		C.ar		1		UNL1		0.3792
7		N		3.2969		1.6081		0.3689		N.pl3		1		UNL1		-0.7761
8		C		1.9295		1.6466		0.2648		C.ar		1		UNL1		0.7198
9		N		1.3927		2.8330		0.6022		N.ar		1		UNL1		-0.5622
10		C		0.0574		2.8729		0.4994		C.ar		1		UNL1		0.6692
11		N		-0.5617		4.0364		0.7997		N.3		1		UNL1		-0.7718
12		N		-0.7363		1.8505		0.1041		N.ar		1		UNL1		-0.5227
13		C		-0.0633		0.7505		-0.1924		C.ar		1		UNL1		0.6779
14		O		-0.7386		-0.3499		-0.5955		O.3		1		UNL1		-0.5428
15		C		-2.1300		-0.3059		-0.7076		C.ar		1		UNL1		0.2923
16		C		-2.7076		0.1959		-1.8455		C.ar		1		UNL1		-0.1445
17		C		-4.1114		0.1631		-1.9908		C.ar		1		UNL1		-0.1586
18		C		-4.8940		-0.3754		-0.9962		C.ar		1		UNL1		-0.1304
19		CL		-6.6409		-0.3868		-1.2262		Cl		1		UNL1		-0.0137
20		C		-4.3309		-0.9203		0.1948		C.ar		1		UNL1		0.1243
21		C		-5.0994		-1.4949		1.2417		C.ar		1		UNL1		-0.1980
22		C		-4.4903		-2.0097		2.3637		C.ar		1		UNL1		-0.1294
23		C		-3.0823		-1.9803		2.4955		C.ar		1		UNL1		-0.1317
24		C		-2.3047		-1.4305		1.5027		C.ar		1		UNL1		-0.1900
25		C		-2.9013		-0.8845		0.3357		C.ar		1		UNL1		0.1208
26		N		1.2572		0.5616		-0.1407		N.ar		1		UNL1		-0.5418
27		C		3.9072		-0.6952		-0.3249		C.ar		1		UNL1		-0.1603
28		C		4.9183		-1.6245		-0.5374		C.ar		1		UNL1		-0.1544
29		H		7.6246		0.2617		0.3113		H		1		UNL1		0.1588
30		H		5.8447		1.9232		0.6938		H		1		UNL1		0.1373
31		H		3.6719		2.4939		0.6846		H		1		UNL1		0.3474
32		H		-1.5688		4.0516		0.8464		H		1		UNL1		0.3557
33		H		-0.0262		4.7839		1.2126		H		1		UNL1		0.3508
34		H		-2.0853		0.6184		-2.6269		H		1		UNL1		0.1505
35		H		-4.5726		0.5625		-2.8872		H		1		UNL1		0.1595
36		H		-6.1785		-1.5248		1.1430		H		1		UNL1		0.1596
37		H		-5.0959		-2.4463		3.1529		H		1		UNL1		0.1386
38		H		-2.6145		-2.3970		3.3830		H		1		UNL1		0.1386
39		H		-1.2239		-1.4164		1.5901		H		1		UNL1		0.1540
40		H		2.8728		-0.9536		-0.5000		H		1		UNL1		0.2005
41		H		4.6616		-2.6207		-0.8833		H		1		UNL1		0.1611
@<TRIPOS>BOND
1		35		17		1
2		34		16		1
3		17		16		ar
4		17		18		ar
5		16		15		ar
6		19		18		1
7		18		20		ar
8		41		28		1
9		1		2		3
10		15		14		1
11		15		25		ar
12		14		13		1
13		28		27		ar
14		28		3		ar
15		2		3		1
16		40		27		1
17		27		6		ar
18		3		4		ar
19		13		26		ar
20		13		12		ar
21		26		8		ar
22		12		10		ar
23		6		5		ar
24		6		7		1
25		4		29		1
26		4		5		ar
27		20		25		ar
28		20		21		ar
29		8		7		1
30		8		9		ar
31		25		24		ar
32		5		30		1
33		7		31		1
34		10		9		ar
35		10		11		1
36		11		32		1
37		11		33		1
38		36		21		1
39		21		22		ar
40		24		39		1
41		24		23		ar
42		22		23		ar
43		22		37		1
44		23		38		1

