@<TRIPOS>MOLECULE
XYZ-2009-CB-561-10A
 41 43 0 0 0
SMALL
MULLIKEN_CHARGES
****
Gaussian 16 #p B3LYP/6-31G* opt
@<TRIPOS>ATOM
1		C		-1.2732		4.7734		0.0029		C.3		1		UNL1		-0.2863
2		N		-1.8789		3.4547		0.0003		N.3		1		UNL1		-0.6253
3		C		-1.1785		2.3018		0.0006		C.ar		1		UNL1		0.6938
4		N		0.1608		2.3721		0.0006		N.ar		1		UNL1		-0.5756
5		C		0.7650		1.1709		0.0003		C.ar		1		UNL1		0.7263
6		N		2.1373		1.2418		0.0001		N.pl3		1		UNL1		-0.7823
7		C		3.1094		0.2470		-0.0001		C.ar		1		UNL1		0.3214
8		C		2.8851		-1.1403		-0.0002		C.ar		1		UNL1		-0.1637
9		C		3.9610		-2.0226		-0.0004		C.ar		1		UNL1		-0.1506
10		C		5.2848		-1.5555		-0.0006		C.ar		1		UNL1		0.1334
11		C		6.3827		-2.4733		-0.0008		C.1		1		UNL1		0.2308
12		N		7.2751		-3.2205		-0.0010		N.1		1		UNL1		-0.4804
13		C		5.5260		-0.1693		-0.0005		C.ar		1		UNL1		-0.2153
14		C		4.4475		0.6868		-0.0003		C.ar		1		UNL1		0.3130
15		F		4.6610		2.0276		-0.0002		F		1		UNL1		-0.3004
16		N		0.1637		-0.0225		0.0004		N.ar		1		UNL1		-0.5454
17		C		-1.1732		0.0614		0.0006		C.ar		1		UNL1		0.6751
18		O		-1.7757		-1.1449		0.0009		O.3		1		UNL1		-0.5391
19		C		-3.1742		-1.2182		0.0003		C.ar		1		UNL1		0.3522
20		C		-3.8521		-1.3169		1.2105		C.ar		1		UNL1		-0.1422
21		C		-5.2352		-1.4951		1.2010		C.ar		1		UNL1		-0.1962
22		C		-5.9508		-1.5768		-0.0010		C.ar		1		UNL1		0.1872
23		C		-7.4532		-1.7421		-0.0018		C.3		1		UNL1		-0.5312
24		C		-5.2355		-1.4831		-1.2025		C.ar		1		UNL1		-0.1962
25		C		-3.8525		-1.3049		-1.2107		C.ar		1		UNL1		-0.1418
26		N		-1.9101		1.1585		0.0007		N.ar		1		UNL1		-0.5394
27		H		-0.6412		4.9207		-0.8795		H		1		UNL1		0.1763
28		H		-0.6533		4.9241		0.8933		H		1		UNL1		0.1758
29		H		-2.0718		5.5182		-0.0040		H		1		UNL1		0.1571
30		H		-2.8828		3.3515		0.0027		H		1		UNL1		0.3457
31		H		2.4841		2.1926		0.0002		H		1		UNL1		0.3568
32		H		1.8669		-1.5026		-0.0000		H		1		UNL1		0.2076
33		H		3.7735		-3.0911		-0.0005		H		1		UNL1		0.1625
34		H		6.5321		0.2338		-0.0007		H		1		UNL1		0.1721
35		H		-3.2979		-1.2644		2.1423		H		1		UNL1		0.1414
36		H		-5.7659		-1.5775		2.1466		H		1		UNL1		0.1287
37		H		-7.9620		-0.7687		-0.0024		H		1		UNL1		0.1660
38		H		-7.7963		-2.2873		-0.8874		H		1		UNL1		0.1591
39		H		-7.7971		-2.2868		0.8839		H		1		UNL1		0.1590
40		H		-5.7666		-1.5561		-2.1487		H		1		UNL1		0.1287
41		H		-3.2987		-1.2431		-2.1422		H		1		UNL1		0.1413
@<TRIPOS>BOND
1		40		24		1
2		41		25		1
3		25		24		ar
4		25		19		ar
5		24		22		ar
6		38		23		1
7		27		1		1
8		29		1		1
9		37		23		1
10		23		22		1
11		23		39		1
12		12		11		3
13		22		21		ar
14		11		10		1
15		34		13		1
16		10		13		ar
17		10		9		ar
18		13		14		ar
19		33		9		1
20		9		8		ar
21		14		15		1
22		14		7		ar
23		8		7		ar
24		8		32		1
25		7		6		1
26		6		31		1
27		6		5		1
28		2		3		1
29		2		30		1
30		2		1		1
31		19		18		1
32		19		20		ar
33		5		16		ar
34		5		4		ar
35		16		17		ar
36		4		3		ar
37		17		26		ar
38		17		18		1
39		3		26		ar
40		1		28		1
41		21		20		ar
42		21		36		1
43		20		35		1

