@<TRIPOS>MOLECULE
XYZ-2009-APC-145-7D
 48 51 0 0 0
SMALL
MULLIKEN_CHARGES
****
Gaussian 16 #p B3LYP/6-31G* opt
@<TRIPOS>ATOM
1		C		3.3122		5.7103		-0.1105		C.2		1		UNL1		-0.3379
2		C		2.5721		4.6642		-0.4773		C.2		1		UNL1		-0.0534
3		C		2.1396		3.5649		0.4571		C.3		1		UNL1		-0.1795
4		N		0.6863		3.4501		0.5110		N.3		1		UNL1		-0.6365
5		C		-0.0318		2.3281		0.2796		C.ar		1		UNL1		0.7076
6		N		-1.3678		2.4365		0.3880		N.ar		1		UNL1		-0.5803
7		C		-2.0326		1.2951		0.1498		C.ar		1		UNL1		0.7246
8		N		-3.3961		1.4127		0.2602		N.pl3		1		UNL1		-0.7769
9		C		-4.4373		0.4926		0.1024		C.ar		1		UNL1		0.3798
10		C		-5.7444		0.9855		0.2863		C.ar		1		UNL1		-0.2056
11		C		-6.8445		0.1544		0.1526		C.ar		1		UNL1		-0.1406
12		C		-6.6680		-1.2022		-0.1709		C.ar		1		UNL1		0.1321
13		C		-7.7998		-2.0666		-0.3118		C.1		1		UNL1		0.2282
14		N		-8.7223		-2.7674		-0.4264		N.1		1		UNL1		-0.4847
15		C		-5.3646		-1.6932		-0.3533		C.ar		1		UNL1		-0.1547
16		C		-4.2570		-0.8648		-0.2206		C.ar		1		UNL1		-0.1599
17		N		-1.4881		0.1127		-0.1721		N.ar		1		UNL1		-0.5425
18		C		-0.1586		0.1551		-0.2418		C.ar		1		UNL1		0.6897
19		O		0.3959		-1.0369		-0.5661		O.3		1		UNL1		-0.5320
20		C		1.7760		-1.1351		-0.6843		C.ar		1		UNL1		0.3587
21		C		2.3634		-0.8696		-1.9406		C.ar		1		UNL1		-0.1413
22		C		3.7110		-1.0554		-2.1210		C.ar		1		UNL1		-0.2071
23		C		4.5314		-1.5170		-1.0578		C.ar		1		UNL1		0.1544
24		C		5.9270		-1.7162		-1.2299		C.ar		1		UNL1		-0.1960
25		C		6.7127		-2.1669		-0.1945		C.ar		1		UNL1		-0.1306
26		C		6.1307		-2.4397		1.0656		C.ar		1		UNL1		-0.1334
27		C		4.7809		-2.2593		1.2706		C.ar		1		UNL1		-0.1945
28		C		3.9429		-1.7949		0.2222		C.ar		1		UNL1		0.1223
29		C		2.5384		-1.5880		0.3714		C.ar		1		UNL1		-0.1871
30		CL		1.7566		-1.9078		1.9056		Cl		1		UNL1		0.0147
31		N		0.6347		1.1950		-0.0411		N.ar		1		UNL1		-0.5414
32		H		3.6539		5.8362		0.9152		H		1		UNL1		0.1437
33		H		3.6150		6.4752		-0.8201		H		1		UNL1		0.1504
34		H		2.2377		4.5636		-1.5098		H		1		UNL1		0.1404
35		H		2.5401		3.7455		1.4638		H		1		UNL1		0.1565
36		H		2.5130		2.5936		0.1217		H		1		UNL1		0.2101
37		H		0.1408		4.2682		0.7461		H		1		UNL1		0.3388
38		H		-3.6700		2.3559		0.5052		H		1		UNL1		0.3463
39		H		-5.8926		2.0335		0.5366		H		1		UNL1		0.1362
40		H		-7.8451		0.5487		0.2972		H		1		UNL1		0.1576
41		H		-5.2195		-2.7397		-0.6022		H		1		UNL1		0.1606
42		H		-3.2576		-1.2504		-0.3620		H		1		UNL1		0.2024
43		H		1.7213		-0.5270		-2.7453		H		1		UNL1		0.1496
44		H		4.1664		-0.8536		-3.0867		H		1		UNL1		0.1421
45		H		6.3633		-1.5044		-2.2030		H		1		UNL1		0.1361
46		H		7.7789		-2.3147		-0.3411		H		1		UNL1		0.1366
47		H		6.7549		-2.7960		1.8802		H		1		UNL1		0.1380
48		H		4.3432		-2.4715		2.2393		H		1		UNL1		0.1585
@<TRIPOS>BOND
1		44		22		1
2		43		21		1
3		45		24		1
4		22		21		ar
5		22		23		ar
6		21		20		ar
7		34		2		1
8		24		23		ar
9		24		25		ar
10		23		28		ar
11		33		1		1
12		20		19		1
13		20		29		ar
14		41		15		1
15		19		18		1
16		2		1		2
17		2		3		1
18		14		13		3
19		42		16		1
20		15		16		ar
21		15		12		ar
22		46		25		1
23		13		12		1
24		18		17		ar
25		18		31		ar
26		16		9		ar
27		25		26		ar
28		17		7		ar
29		12		11		ar
30		1		32		1
31		31		5		ar
32		9		8		1
33		9		10		ar
34		36		3		1
35		7		8		1
36		7		6		ar
37		11		10		ar
38		11		40		1
39		28		29		ar
40		28		27		ar
41		8		38		1
42		5		6		ar
43		5		4		1
44		10		39		1
45		29		30		1
46		3		4		1
47		3		35		1
48		4		37		1
49		26		27		ar
50		26		47		1
51		27		48		1

