@<TRIPOS>MOLECULE
XYZ-2009-CB-561-8A
 44 47 0 0 0
SMALL
MULLIKEN_CHARGES
****
Gaussian 16 #p B3LYP/6-31G* opt
@<TRIPOS>ATOM
1		C		6.0709		-2.4309		-0.1428		C.3		1		UNL1		-0.3120
2		N		5.4307		-1.1294		-0.1727		N.3		1		UNL1		-0.6246
3		C		4.1010		-0.9052		-0.0948		C.ar		1		UNL1		0.7007
4		N		3.7126		0.3868		-0.1475		N.ar		1		UNL1		-0.5763
5		C		2.3899		0.5603		-0.0670		C.ar		1		UNL1		0.7250
6		N		1.9885		1.8736		-0.1213		N.pl3		1		UNL1		-0.7837
7		C		0.7255		2.4555		-0.0753		C.ar		1		UNL1		0.3200
8		C		-0.5029		1.7825		0.0380		C.ar		1		UNL1		-0.1664
9		C		-1.6942		2.5005		0.0721		C.ar		1		UNL1		-0.1550
10		C		-1.7009		3.9022		-0.0045		C.ar		1		UNL1		0.1332
11		C		-2.9330		4.6291		0.0339		C.1		1		UNL1		0.2310
12		N		-3.9359		5.2189		0.0665		N.1		1		UNL1		-0.4807
13		C		-0.4794		4.5911		-0.1191		C.ar		1		UNL1		-0.2153
14		C		0.6880		3.8615		-0.1516		C.ar		1		UNL1		0.3139
15		F		1.8757		4.5099		-0.2621		F		1		UNL1		-0.3001
16		N		1.4671		-0.4078		0.0561		N.ar		1		UNL1		-0.5526
17		C		1.9944		-1.6330		0.0964		C.ar		1		UNL1		0.6781
18		O		1.1619		-2.6901		0.2084		O.3		1		UNL1		-0.5366
19		C		-0.2118		-2.4796		0.3561		C.ar		1		UNL1		0.3532
20		C		-0.7197		-2.0524		1.6052		C.ar		1		UNL1		-0.1443
21		C		-2.0793		-1.9359		1.7742		C.ar		1		UNL1		-0.2104
22		C		-2.9815		-2.2440		0.7188		C.ar		1		UNL1		0.1432
23		C		-4.3895		-2.1307		0.8671		C.ar		1		UNL1		-0.1948
24		C		-5.2356		-2.4396		-0.1743		C.ar		1		UNL1		-0.1339
25		C		-4.7097		-2.8786		-1.4140		C.ar		1		UNL1		-0.1353
26		C		-3.3495		-3.0005		-1.5903		C.ar		1		UNL1		-0.1888
27		C		-2.4496		-2.6876		-0.5364		C.ar		1		UNL1		0.1266
28		C		-1.0412		-2.7971		-0.6892		C.ar		1		UNL1		-0.2331
29		N		3.2753		-1.9653		0.0293		N.ar		1		UNL1		-0.5354
30		H		6.6182		-2.6201		-1.0742		H		1		UNL1		0.1618
31		H		6.7717		-2.5015		0.6975		H		1		UNL1		0.1616
32		H		5.2966		-3.1884		-0.0255		H		1		UNL1		0.2157
33		H		5.9946		-0.2964		-0.2673		H		1		UNL1		0.3393
34		H		2.7629		2.5190		-0.2127		H		1		UNL1		0.3571
35		H		-0.5063		0.7039		0.0975		H		1		UNL1		0.2131
36		H		-2.6340		1.9657		0.1591		H		1		UNL1		0.1651
37		H		-0.4390		5.6724		-0.1816		H		1		UNL1		0.1723
38		H		-0.0284		-1.8252		2.4099		H		1		UNL1		0.1446
39		H		-2.4817		-1.6082		2.7295		H		1		UNL1		0.1401
40		H		-4.7895		-1.7946		1.8209		H		1		UNL1		0.1344
41		H		-6.3108		-2.3476		-0.0488		H		1		UNL1		0.1353
42		H		-5.3868		-3.1195		-2.2290		H		1		UNL1		0.1350
43		H		-2.9449		-3.3371		-2.5417		H		1		UNL1		0.1346
44		H		-0.6171		-3.1347		-1.6302		H		1		UNL1		0.1444
@<TRIPOS>BOND
1		43		26		1
2		42		25		1
3		44		28		1
4		26		25		ar
5		26		27		ar
6		25		24		ar
7		30		1		1
8		28		27		ar
9		28		19		ar
10		27		22		ar
11		33		2		1
12		15		14		1
13		34		6		1
14		37		13		1
15		24		41		1
16		24		23		ar
17		2		1		1
18		2		3		1
19		14		13		ar
20		14		7		ar
21		4		3		ar
22		4		5		ar
23		1		32		1
24		1		31		1
25		6		7		1
26		6		5		1
27		13		10		ar
28		3		29		ar
29		7		8		ar
30		5		16		ar
31		10		11		1
32		10		9		ar
33		29		17		ar
34		11		12		3
35		8		9		ar
36		8		35		1
37		16		17		ar
38		9		36		1
39		17		18		1
40		18		19		1
41		19		20		ar
42		22		23		ar
43		22		21		ar
44		23		40		1
45		20		21		ar
46		20		38		1
47		21		39		1

