@<TRIPOS>MOLECULE
XYZ-2009-APC-145-6B
 48 51 0 0 0
SMALL
MULLIKEN_CHARGES
****
Gaussian 16 #p B3LYP/6-31G* opt
@<TRIPOS>ATOM
1		C		3.5409		6.6001		-0.4708		C.2		1		UNL1		-0.3375
2		C		2.7401		5.5723		-0.7519		C.2		1		UNL1		-0.0537
3		C		1.9876		4.7793		0.2841		C.3		1		UNL1		-0.1805
4		N		2.3556		3.3674		0.2502		N.3		1		UNL1		-0.6350
5		C		1.5059		2.3326		0.0680		C.ar		1		UNL1		0.7086
6		N		2.0710		1.1002		0.0443		N.ar		1		UNL1		-0.5695
7		C		1.2002		0.1104		-0.1315		C.ar		1		UNL1		0.7243
8		N		1.6141		-1.1984		-0.1720		N.pl3		1		UNL1		-0.7790
9		C		2.8721		-1.7948		-0.0567		C.ar		1		UNL1		0.3813
10		C		2.9148		-3.2008		-0.1400		C.ar		1		UNL1		-0.2046
11		C		4.1157		-3.8837		-0.0385		C.ar		1		UNL1		-0.1403
12		C		5.3161		-3.1765		0.1504		C.ar		1		UNL1		0.1325
13		C		6.5612		-3.8741		0.2562		C.1		1		UNL1		0.2284
14		N		7.5739		-4.4416		0.3422		N.1		1		UNL1		-0.4829
15		C		5.2732		-1.7752		0.2334		C.ar		1		UNL1		-0.1531
16		C		4.0715		-1.0852		0.1322		C.ar		1		UNL1		-0.1545
17		N		-0.1383		0.2438		-0.2864		N.ar		1		UNL1		-0.5551
18		C		-0.5473		1.5043		-0.2450		C.ar		1		UNL1		0.6778
19		O		-1.8677		1.7704		-0.3851		O.3		1		UNL1		-0.5433
20		C		-2.7657		0.7213		-0.5865		C.ar		1		UNL1		0.2927
21		C		-2.9810		0.2436		-1.8540		C.ar		1		UNL1		-0.1474
22		C		-3.9493		-0.7609		-2.0694		C.ar		1		UNL1		-0.1589
23		C		-4.6767		-1.2539		-1.0113		C.ar		1		UNL1		-0.1310
24		CL		-5.8686		-2.5108		-1.3343		Cl		1		UNL1		-0.0140
25		C		-4.4935		-0.7737		0.3186		C.ar		1		UNL1		0.1242
26		C		-5.2284		-1.2464		1.4381		C.ar		1		UNL1		-0.1982
27		C		-5.0056		-0.7338		2.6961		C.ar		1		UNL1		-0.1294
28		C		-4.0404		0.2800		2.8993		C.ar		1		UNL1		-0.1317
29		C		-3.3080		0.7620		1.8392		C.ar		1		UNL1		-0.1899
30		C		-3.5073		0.2499		0.5301		C.ar		1		UNL1		0.1215
31		N		0.1943		2.5941		-0.0712		N.ar		1		UNL1		-0.5375
32		H		4.0553		7.1556		-1.2499		H		1		UNL1		0.1518
33		H		3.7044		6.9334		0.5524		H		1		UNL1		0.1436
34		H		2.5961		5.2549		-1.7846		H		1		UNL1		0.1426
35		H		0.9097		4.8190		0.1053		H		1		UNL1		0.2114
36		H		2.1763		5.1897		1.2851		H		1		UNL1		0.1559
37		H		3.3316		3.1175		0.3332		H		1		UNL1		0.3394
38		H		0.8327		-1.8282		-0.3072		H		1		UNL1		0.3525
39		H		1.9923		-3.7580		-0.2856		H		1		UNL1		0.1416
40		H		4.1326		-4.9666		-0.1044		H		1		UNL1		0.1603
41		H		6.1958		-1.2223		0.3791		H		1		UNL1		0.1577
42		H		4.0440		-0.0075		0.1969		H		1		UNL1		0.1797
43		H		-2.4054		0.6376		-2.6846		H		1		UNL1		0.1493
44		H		-4.1198		-1.1437		-3.0695		H		1		UNL1		0.1592
45		H		-5.9732		-2.0194		1.2867		H		1		UNL1		0.1595
46		H		-5.5789		-1.1082		3.5395		H		1		UNL1		0.1386
47		H		-3.8803		0.6806		3.8964		H		1		UNL1		0.1381
48		H		-2.5758		1.5487		1.9844		H		1		UNL1		0.1544
@<TRIPOS>BOND
1		44		22		1
2		43		21		1
3		22		21		ar
4		22		23		ar
5		21		20		ar
6		34		2		1
7		24		23		1
8		32		1		1
9		23		25		ar
10		2		1		2
11		2		3		1
12		20		19		1
13		20		30		ar
14		1		33		1
15		19		18		1
16		38		8		1
17		17		18		ar
18		17		7		ar
19		39		10		1
20		18		31		ar
21		8		7		1
22		8		9		1
23		10		9		ar
24		10		11		ar
25		7		6		ar
26		40		11		1
27		31		5		ar
28		9		16		ar
29		11		12		ar
30		6		5		ar
31		5		4		1
32		35		3		1
33		16		42		1
34		16		15		ar
35		12		15		ar
36		12		13		1
37		15		41		1
38		4		3		1
39		4		37		1
40		13		14		3
41		3		36		1
42		25		30		ar
43		25		26		ar
44		30		29		ar
45		45		26		1
46		26		27		ar
47		29		48		1
48		29		28		ar
49		27		28		ar
50		27		46		1
51		28		47		1

