@<TRIPOS>MOLECULE
XYZ-2009-CB-561-8B
 41 44 0 0 0
SMALL
MULLIKEN_CHARGES
****
Gaussian 16 #p B3LYP/6-31G* opt
@<TRIPOS>ATOM
1		N		9.2029		0.8501		0.3861		N.1		1		UNL1		-0.4787
2		C		8.0749		0.5772		0.2970		C.1		1		UNL1		0.2311
3		C		6.6870		0.2461		0.1881		C.ar		1		UNL1		0.1338
4		C		5.7047		1.2433		0.2912		C.ar		1		UNL1		-0.1488
5		C		4.3521		0.9341		0.1874		C.ar		1		UNL1		-0.1579
6		C		3.9425		-0.3929		-0.0238		C.ar		1		UNL1		0.3235
7		N		2.6337		-0.8444		-0.1473		N.pl3		1		UNL1		-0.7825
8		C		1.4294		-0.1850		-0.0967		C.ar		1		UNL1		0.7220
9		N		1.3921		1.1347		0.1114		N.ar		1		UNL1		-0.5527
10		C		0.1433		1.6403		0.1353		C.ar		1		UNL1		0.6701
11		N		0.0187		2.9742		0.3176		N.3		1		UNL1		-0.7703
12		N		-0.9957		0.9400		-0.0211		N.ar		1		UNL1		-0.5245
13		C		-0.7962		-0.3603		-0.2192		C.ar		1		UNL1		0.6730
14		O		-1.8607		-1.1716		-0.3770		O.3		1		UNL1		-0.5339
15		C		-3.1525		-0.6389		-0.4170		C.ar		1		UNL1		0.3537
16		C		-3.5665		0.1248		-1.5329		C.ar		1		UNL1		-0.1342
17		C		-4.8707		0.5516		-1.6076		C.ar		1		UNL1		-0.2100
18		C		-5.8098		0.2347		-0.5878		C.ar		1		UNL1		0.1469
19		C		-7.1628		0.6623		-0.6425		C.ar		1		UNL1		-0.1939
20		C		-8.0478		0.3342		0.3602		C.ar		1		UNL1		-0.1346
21		C		-7.6177		-0.4399		1.4654		C.ar		1		UNL1		-0.1361
22		C		-6.3127		-0.8715		1.5480		C.ar		1		UNL1		-0.1893
23		C		-5.3750		-0.5487		0.5309		C.ar		1		UNL1		0.1275
24		C		-4.0216		-0.9772		0.5885		C.ar		1		UNL1		-0.2358
25		N		0.3707		-0.9969		-0.2725		N.ar		1		UNL1		-0.5455
26		C		4.9503		-1.3724		-0.1237		C.ar		1		UNL1		0.3162
27		F		4.5535		-2.6528		-0.3287		F		1		UNL1		-0.2966
28		C		6.2940		-1.0882		-0.0241		C.ar		1		UNL1		-0.2146
29		H		6.0067		2.2725		0.4541		H		1		UNL1		0.1596
30		H		3.5974		1.7027		0.2667		H		1		UNL1		0.1848
31		H		2.5259		-1.8389		-0.3048		H		1		UNL1		0.3634
32		H		-0.9029		3.3555		0.4669		H		1		UNL1		0.3560
33		H		0.8312		3.5134		0.5725		H		1		UNL1		0.3501
34		H		-2.8500		0.3602		-2.3124		H		1		UNL1		0.1432
35		H		-5.2015		1.1390		-2.4606		H		1		UNL1		0.1366
36		H		-7.4896		1.2554		-1.4936		H		1		UNL1		0.1315
37		H		-9.0806		0.6676		0.3066		H		1		UNL1		0.1322
38		H		-8.3246		-0.6936		2.2507		H		1		UNL1		0.1329
39		H		-5.9817		-1.4667		2.3956		H		1		UNL1		0.1334
40		H		-3.6720		-1.5779		1.4227		H		1		UNL1		0.1438
41		H		7.0198		-1.8886		-0.1098		H		1		UNL1		0.1747
@<TRIPOS>BOND
1		35		17		1
2		34		16		1
3		17		16		ar
4		17		18		ar
5		16		15		ar
6		36		19		1
7		19		18		ar
8		19		20		ar
9		18		23		ar
10		15		14		1
11		15		24		ar
12		14		13		1
13		27		26		1
14		31		7		1
15		25		13		ar
16		25		8		ar
17		13		12		ar
18		7		8		1
19		7		6		1
20		26		28		ar
21		26		6		ar
22		41		28		1
23		8		9		ar
24		28		3		ar
25		6		5		ar
26		12		10		ar
27		9		10		ar
28		10		11		1
29		5		30		1
30		5		4		ar
31		3		4		ar
32		3		2		1
33		4		29		1
34		2		1		3
35		37		20		1
36		11		32		1
37		11		33		1
38		20		21		ar
39		23		24		ar
40		23		22		ar
41		24		40		1
42		21		22		ar
43		21		38		1
44		22		39		1

