@<TRIPOS>MOLECULE
XYZ-2008-EJMC-1230-8G
 50 53 0 0 0
SMALL
MULLIKEN_CHARGES
****
Gaussian 16 #p B3LYP/6-31G* opt
@<TRIPOS>ATOM
1		C		1.2245		4.9695		-0.1179		C.3		1		UNL1		-0.4511
2		C		2.1683		3.8929		0.4252		C.3		1		UNL1		-0.2527
3		C		1.5220		2.9766		1.4761		C.3		1		UNL1		-0.1324
4		N		0.3937		2.1999		0.9768		N.3		1		UNL1		-0.6300
5		C		0.4771		1.0120		0.3407		C.ar		1		UNL1		0.7037
6		N		1.6927		0.4544		0.1678		N.ar		1		UNL1		-0.5655
7		C		1.6590		-0.7315		-0.4474		C.ar		1		UNL1		0.7160
8		N		2.8189		-1.4276		-0.6901		N.pl3		1		UNL1		-0.7791
9		C		4.1615		-1.1578		-0.4182		C.ar		1		UNL1		0.3810
10		C		4.6259		0.0144		0.2050		C.ar		1		UNL1		-0.1625
11		C		5.9863		0.1861		0.4282		C.ar		1		UNL1		-0.1563
12		C		6.9159		-0.7931		0.0415		C.ar		1		UNL1		0.1325
13		C		8.3143		-0.6027		0.2778		C.1		1		UNL1		0.2281
14		N		9.4519		-0.4475		0.4701		N.1		1		UNL1		-0.4832
15		C		6.4497		-1.9638		-0.5822		C.ar		1		UNL1		-0.1406
16		C		5.0944		-2.1401		-0.8068		C.ar		1		UNL1		-0.2033
17		N		0.5592		-1.3719		-0.8908		N.ar		1		UNL1		-0.5523
18		C		-0.5654		-0.6992		-0.6619		C.ar		1		UNL1		0.6777
19		O		-1.6733		-1.3391		-1.1070		O.3		1		UNL1		-0.5448
20		C		-2.9250		-0.7448		-0.9428		C.ar		1		UNL1		0.2942
21		C		-3.3807		0.1502		-1.8768		C.ar		1		UNL1		-0.1475
22		C		-4.6803		0.6883		-1.7567		C.ar		1		UNL1		-0.1585
23		C		-5.4871		0.3113		-0.7086		C.ar		1		UNL1		-0.1309
24		CL		-7.0985		1.0170		-0.6029		Cl		1		UNL1		-0.0151
25		C		-5.0568		-0.6271		0.2746		C.ar		1		UNL1		0.1245
26		C		-5.8593		-1.0525		1.3664		C.ar		1		UNL1		-0.1982
27		C		-5.3835		-1.9684		2.2772		C.ar		1		UNL1		-0.1295
28		C		-4.0836		-2.5093		2.1418		C.ar		1		UNL1		-0.1319
29		C		-3.2766		-2.1200		1.0978		C.ar		1		UNL1		-0.1896
30		C		-3.7333		-1.1717		0.1451		C.ar		1		UNL1		0.1220
31		N		-0.6974		0.4761		-0.0643		N.ar		1		UNL1		-0.5418
32		H		0.3532		4.5239		-0.6116		H		1		UNL1		0.1489
33		H		0.8597		5.6225		0.6853		H		1		UNL1		0.1419
34		H		1.7317		5.6021		-0.8541		H		1		UNL1		0.1552
35		H		3.0444		4.3662		0.8891		H		1		UNL1		0.1395
36		H		2.5445		3.2713		-0.3963		H		1		UNL1		0.1586
37		H		1.1516		3.5733		2.3180		H		1		UNL1		0.1492
38		H		2.2620		2.2758		1.8716		H		1		UNL1		0.1774
39		H		-0.5429		2.5722		1.0465		H		1		UNL1		0.3453
40		H		2.6268		-2.3044		-1.1590		H		1		UNL1		0.3521
41		H		3.9158		0.7713		0.5035		H		1		UNL1		0.1948
42		H		6.3384		1.0931		0.9095		H		1		UNL1		0.1565
43		H		7.1554		-2.7297		-0.8871		H		1		UNL1		0.1600
44		H		4.7454		-3.0499		-1.2895		H		1		UNL1		0.1412
45		H		-2.7403		0.4420		-2.7022		H		1		UNL1		0.1489
46		H		-5.0426		1.3990		-2.4912		H		1		UNL1		0.1585
47		H		-6.8583		-0.6452		1.4715		H		1		UNL1		0.1590
48		H		-6.0135		-2.2819		3.1049		H		1		UNL1		0.1380
49		H		-3.7238		-3.2369		2.8638		H		1		UNL1		0.1377
50		H		-2.2838		-2.5398		0.9791		H		1		UNL1		0.1541
@<TRIPOS>BOND
1		45		21		1
2		46		22		1
3		21		22		ar
4		21		20		ar
5		22		23		ar
6		44		16		1
7		40		8		1
8		19		20		1
9		19		18		1
10		20		30		ar
11		17		18		ar
12		17		7		ar
13		43		15		1
14		34		1		1
15		16		15		ar
16		16		9		ar
17		23		24		1
18		23		25		ar
19		8		7		1
20		8		9		1
21		18		31		ar
22		32		1		1
23		15		12		ar
24		7		6		ar
25		9		10		ar
26		36		2		1
27		1		2		1
28		1		33		1
29		31		5		ar
30		12		13		1
31		12		11		ar
32		30		25		ar
33		30		29		ar
34		6		5		ar
35		10		11		ar
36		10		41		1
37		25		26		ar
38		13		14		3
39		5		4		1
40		2		35		1
41		2		3		1
42		11		42		1
43		4		39		1
44		4		3		1
45		50		29		1
46		29		28		ar
47		26		47		1
48		26		27		ar
49		3		38		1
50		3		37		1
51		28		27		ar
52		28		49		1
53		27		48		1

