@<TRIPOS>MOLECULE
XYZ-2008-EJMC-1230-9D
 50 53 0 0 0
SMALL
MULLIKEN_CHARGES
****
Gaussian 16 #p B3LYP/6-31G* opt
@<TRIPOS>ATOM
1		C		-8.8122		-0.4676		1.1741		C.3		1		UNL1		-0.4490
2		C		-7.5416		0.3814		1.2774		C.3		1		UNL1		-0.2507
3		C		-6.9814		0.7555		-0.1026		C.3		1		UNL1		-0.1195
4		N		-5.7826		1.5795		-0.0458		N.3		1		UNL1		-0.6358
5		C		-4.5192		1.1105		0.0480		C.ar		1		UNL1		0.7012
6		N		-4.3189		-0.2189		0.0063		N.ar		1		UNL1		-0.5726
7		C		-3.0286		-0.5776		0.0783		C.ar		1		UNL1		0.7005
8		N		-2.8101		-1.9310		0.0119		N.pl3		1		UNL1		-0.7694
9		C		-1.6149		-2.6614		-0.0443		C.ar		1		UNL1		0.3681
10		C		-1.6598		-4.0031		0.3750		C.ar		1		UNL1		-0.1948
11		C		-0.5304		-4.8053		0.3107		C.ar		1		UNL1		-0.1422
12		C		0.6799		-4.2785		-0.1708		C.ar		1		UNL1		0.1325
13		C		1.8519		-5.0982		-0.2328		C.1		1		UNL1		0.2301
14		N		2.8028		-5.7677		-0.2837		N.1		1		UNL1		-0.4830
15		C		0.7204		-2.9406		-0.5989		C.ar		1		UNL1		-0.1651
16		C		-0.4116		-2.1374		-0.5478		C.ar		1		UNL1		-0.1397
17		N		-1.9834		0.2493		0.2251		N.ar		1		UNL1		-0.5370
18		C		-2.3353		1.5345		0.2526		C.ar		1		UNL1		0.6839
19		O		-1.3580		2.4666		0.4013		O.3		1		UNL1		-0.5361
20		C		-0.0436		2.0745		0.5982		C.ar		1		UNL1		0.3367
21		C		0.4727		2.2067		1.9066		C.ar		1		UNL1		-0.1524
22		C		1.7931		1.9321		2.1610		C.ar		1		UNL1		-0.1968
23		C		2.6594		1.5088		1.1190		C.ar		1		UNL1		0.1546
24		C		4.0255		1.2153		1.3718		C.ar		1		UNL1		-0.2246
25		C		4.8433		0.8039		0.3486		C.ar		1		UNL1		0.0847
26		BR		6.6798		0.4104		0.6934		Br		1		UNL1		-0.1177
27		C		4.3530		0.6623		-0.9688		C.ar		1		UNL1		-0.1501
28		C		3.0338		0.9442		-1.2390		C.ar		1		UNL1		-0.1933
29		C		2.1480		1.3749		-0.2153		C.ar		1		UNL1		0.0979
30		C		0.7746		1.6812		-0.4390		C.ar		1		UNL1		-0.0093
31		BR		0.0298		1.5252		-2.1824		Br		1		UNL1		-0.1005
32		N		-3.5478		2.0487		0.1630		N.ar		1		UNL1		-0.5377
33		H		-8.6222		-1.4038		0.6352		H		1		UNL1		0.1477
34		H		-9.1951		-0.7273		2.1667		H		1		UNL1		0.1525
35		H		-9.6083		0.0664		0.6406		H		1		UNL1		0.1451
36		H		-7.7484		1.2992		1.8442		H		1		UNL1		0.1350
37		H		-6.7665		-0.1629		1.8303		H		1		UNL1		0.1534
38		H		-7.7336		1.3070		-0.6795		H		1		UNL1		0.1463
39		H		-6.7351		-0.1499		-0.6637		H		1		UNL1		0.1765
40		H		-5.8666		2.5822		0.0491		H		1		UNL1		0.3414
41		H		-3.6705		-2.4631		0.0351		H		1		UNL1		0.3445
42		H		-2.5891		-4.4122		0.7635		H		1		UNL1		0.1383
43		H		-0.5760		-5.8383		0.6398		H		1		UNL1		0.1584
44		H		1.6483		-2.5311		-0.9852		H		1		UNL1		0.1605
45		H		-0.3696		-1.1201		-0.9106		H		1		UNL1		0.1963
46		H		-0.2023		2.5345		2.6902		H		1		UNL1		0.1562
47		H		2.1902		2.0334		3.1669		H		1		UNL1		0.1485
48		H		4.4125		1.3181		2.3803		H		1		UNL1		0.1588
49		H		5.0201		0.3333		-1.7578		H		1		UNL1		0.1619
50		H		2.6550		0.8381		-2.2491		H		1		UNL1		0.1658
@<TRIPOS>BOND
1		50		28		1
2		31		30		1
3		49		27		1
4		28		27		ar
5		28		29		ar
6		44		15		1
7		27		25		ar
8		45		16		1
9		38		3		1
10		39		3		1
11		15		16		ar
12		15		12		ar
13		16		9		ar
14		30		29		ar
15		30		20		ar
16		14		13		3
17		13		12		1
18		29		23		ar
19		12		11		ar
20		3		4		1
21		3		2		1
22		4		5		1
23		4		40		1
24		9		8		1
25		9		10		ar
26		6		5		ar
27		6		7		ar
28		8		41		1
29		8		7		1
30		5		32		ar
31		7		17		ar
32		32		18		ar
33		17		18		ar
34		18		19		1
35		11		10		ar
36		11		43		1
37		25		26		1
38		25		24		ar
39		10		42		1
40		19		20		1
41		20		21		ar
42		33		1		1
43		35		1		1
44		23		24		ar
45		23		22		ar
46		1		2		1
47		1		34		1
48		2		37		1
49		2		36		1
50		24		48		1
51		21		22		ar
52		21		46		1
53		22		47		1

