@<TRIPOS>MOLECULE
XYZ-2008-EJMC-1230-9G
 44 47 0 0 0
SMALL
MULLIKEN_CHARGES
****
Gaussian 16 #p B3LYP/6-31G* opt
@<TRIPOS>ATOM
1		C		-2.6987		3.5562		0.3328		C.3		1		UNL1		-0.2929
2		N		-1.6006		2.6231		0.1622		N.3		1		UNL1		-0.6229
3		C		-1.7473		1.2892		0.0261		C.ar		1		UNL1		0.6974
4		N		-2.9968		0.7856		0.0262		N.ar		1		UNL1		-0.5637
5		C		-3.0399		-0.5435		-0.1155		C.ar		1		UNL1		0.7179
6		N		-4.2439		-1.2050		-0.1353		N.pl3		1		UNL1		-0.7774
7		C		-5.5663		-0.7686		-0.0308		C.ar		1		UNL1		0.3815
8		C		-6.5658		-1.7596		-0.1024		C.ar		1		UNL1		-0.2037
9		C		-7.9070		-1.4265		-0.0085		C.ar		1		UNL1		-0.1406
10		C		-8.2911		-0.0847		0.1608		C.ar		1		UNL1		0.1326
11		C		-9.6744		0.2686		0.2585		C.1		1		UNL1		0.2280
12		N		-10.7996		0.5564		0.3380		N.1		1		UNL1		-0.4833
13		C		-7.2950		0.9028		0.2323		C.ar		1		UNL1		-0.1552
14		C		-5.9483		0.5744		0.1387		C.ar		1		UNL1		-0.1597
15		N		-1.9828		-1.3671		-0.2510		N.ar		1		UNL1		-0.5503
16		C		-0.8142		-0.7308		-0.2311		C.ar		1		UNL1		0.6742
17		O		0.2486		-1.5579		-0.3503		O.3		1		UNL1		-0.5369
18		C		1.5389		-1.0353		-0.4292		C.ar		1		UNL1		0.3585
19		C		1.9415		-0.3080		-1.5741		C.ar		1		UNL1		-0.1336
20		C		3.2462		0.1085		-1.6855		C.ar		1		UNL1		-0.2065
21		C		4.1989		-0.1844		-0.6711		C.ar		1		UNL1		0.1455
22		C		5.5515		0.2367		-0.7674		C.ar		1		UNL1		-0.2212
23		C		6.4373		-0.0730		0.2363		C.ar		1		UNL1		0.0788
24		BR		8.2592		0.4967		0.1065		Br		1		UNL1		-0.1299
25		C		6.0390		-0.8089		1.3759		C.ar		1		UNL1		-0.1528
26		C		4.7325		-1.2269		1.4860		C.ar		1		UNL1		-0.1906
27		C		3.7778		-0.9306		0.4768		C.ar		1		UNL1		0.1359
28		C		2.4242		-1.3483		0.5712		C.ar		1		UNL1		-0.2371
29		N		-0.6072		0.5726		-0.0993		N.ar		1		UNL1		-0.5442
30		H		-3.3872		3.5154		-0.5179		H		1		UNL1		0.1788
31		H		-2.2844		4.5642		0.4022		H		1		UNL1		0.1617
32		H		-3.2666		3.3436		1.2456		H		1		UNL1		0.1771
33		H		-0.6464		2.9514		0.1778		H		1		UNL1		0.3476
34		H		-4.1112		-2.2024		-0.2501		H		1		UNL1		0.3522
35		H		-6.2803		-2.8007		-0.2334		H		1		UNL1		0.1412
36		H		-8.6648		-2.2011		-0.0654		H		1		UNL1		0.1599
37		H		-7.5837		1.9410		0.3632		H		1		UNL1		0.1564
38		H		-5.1864		1.3378		0.1946		H		1		UNL1		0.1888
39		H		1.2142		-0.0913		-2.3488		H		1		UNL1		0.1466
40		H		3.5665		0.6670		-2.5612		H		1		UNL1		0.1414
41		H		5.8771		0.8014		-1.6351		H		1		UNL1		0.1537
42		H		6.7648		-1.0363		2.1488		H		1		UNL1		0.1558
43		H		4.4181		-1.7938		2.3586		H		1		UNL1		0.1437
44		H		2.0853		-1.9203		1.4295		H		1		UNL1		0.1470
@<TRIPOS>BOND
1		40		20		1
2		39		19		1
3		20		19		ar
4		20		21		ar
5		41		22		1
6		19		18		ar
7		22		21		ar
8		22		23		ar
9		21		27		ar
10		30		1		1
11		18		17		1
12		18		28		ar
13		17		16		1
14		15		16		ar
15		15		5		ar
16		34		6		1
17		35		8		1
18		16		29		ar
19		6		5		1
20		6		7		1
21		5		4		ar
22		8		7		ar
23		8		9		ar
24		29		3		ar
25		36		9		1
26		7		14		ar
27		9		10		ar
28		3		4		ar
29		3		2		1
30		24		23		1
31		14		38		1
32		14		13		ar
33		10		13		ar
34		10		11		1
35		2		33		1
36		2		1		1
37		13		37		1
38		23		25		ar
39		11		12		3
40		1		31		1
41		1		32		1
42		27		28		ar
43		27		26		ar
44		28		44		1
45		25		26		ar
46		25		42		1
47		26		43		1

