@<TRIPOS>MOLECULE
XYZ-2009-CB-561-8G
 47 50 0 0 0
SMALL
MULLIKEN_CHARGES
****
Gaussian 16 #p B3LYP/6-31G* opt
@<TRIPOS>ATOM
1		C		1.4958		5.9508		-1.1535		C.3		1		UNL1		-0.4415
2		C		1.4963		5.3001		0.2328		C.3		1		UNL1		-0.1277
3		N		2.0555		3.9524		0.2409		N.3		1		UNL1		-0.6289
4		C		1.3548		2.8265		-0.0123		C.ar		1		UNL1		0.7070
5		N		2.0646		1.6705		-0.0344		N.ar		1		UNL1		-0.5721
6		C		1.3255		0.5910		-0.2729		C.ar		1		UNL1		0.7307
7		N		1.9019		-0.6555		-0.3296		N.pl3		1		UNL1		-0.7855
8		C		3.2184		-1.0715		-0.1732		C.ar		1		UNL1		0.3243
9		C		4.3255		-0.2512		0.1004		C.ar		1		UNL1		-0.1580
10		C		5.5947		-0.8057		0.2322		C.ar		1		UNL1		-0.1489
11		C		5.8005		-2.1875		0.0967		C.ar		1		UNL1		0.1336
12		C		7.1110		-2.7456		0.2338		C.1		1		UNL1		0.2308
13		N		8.1782		-3.1965		0.3455		N.1		1		UNL1		-0.4792
14		C		4.7022		-3.0236		-0.1766		C.ar		1		UNL1		-0.2149
15		C		3.4549		-2.4543		-0.3034		C.ar		1		UNL1		0.3157
16		F		2.3851		-3.2450		-0.5670		F		1		UNL1		-0.2971
17		N		-0.0091		0.5661		-0.4819		N.ar		1		UNL1		-0.5526
18		C		-0.5689		1.7672		-0.4231		C.ar		1		UNL1		0.6855
19		O		-1.9053		1.8723		-0.6173		O.3		1		UNL1		-0.5340
20		C		-2.6592		0.7218		-0.8100		C.ar		1		UNL1		0.3280
21		C		-3.0390		0.4078		-2.1328		C.ar		1		UNL1		-0.1505
22		C		-3.8659		-0.6609		-2.3740		C.ar		1		UNL1		-0.2038
23		C		-4.3496		-1.4628		-1.3073		C.ar		1		UNL1		0.1543
24		C		-5.2049		-2.5722		-1.5424		C.ar		1		UNL1		-0.1968
25		C		-5.6705		-3.3427		-0.5025		C.ar		1		UNL1		-0.1303
26		C		-5.2973		-3.0325		0.8265		C.ar		1		UNL1		-0.1334
27		C		-4.4706		-1.9645		1.0936		C.ar		1		UNL1		-0.1873
28		C		-3.9723		-1.1487		0.0429		C.ar		1		UNL1		0.0871
29		C		-3.1154		-0.0285		0.2520		C.ar		1		UNL1		-0.0006
30		BR		-2.5717		0.4632		2.0105		Br		1		UNL1		-0.1046
31		N		0.0282		2.9335		-0.2072		N.ar		1		UNL1		-0.5337
32		H		0.8804		5.3690		-1.8465		H		1		UNL1		0.1717
33		H		2.5104		6.0192		-1.5627		H		1		UNL1		0.1432
34		H		1.0833		6.9646		-1.0957		H		1		UNL1		0.1510
35		H		0.4767		5.2326		0.6178		H		1		UNL1		0.1937
36		H		2.0819		5.8984		0.9395		H		1		UNL1		0.1488
37		H		3.0557		3.8293		0.3107		H		1		UNL1		0.3360
38		H		1.2287		-1.3894		-0.5124		H		1		UNL1		0.3628
39		H		4.1680		0.8122		0.2056		H		1		UNL1		0.1849
40		H		6.4407		-0.1603		0.4438		H		1		UNL1		0.1594
41		H		4.8169		-4.0956		-0.2884		H		1		UNL1		0.1740
42		H		-2.6652		1.0343		-2.9359		H		1		UNL1		0.1504
43		H		-4.1611		-0.9055		-3.3907		H		1		UNL1		0.1420
44		H		-5.4848		-2.8007		-2.5679		H		1		UNL1		0.1359
45		H		-6.3236		-4.1885		-0.6977		H		1		UNL1		0.1363
46		H		-5.6665		-3.6437		1.6453		H		1		UNL1		0.1376
47		H		-4.1873		-1.7323		2.1138		H		1		UNL1		0.1568
@<TRIPOS>BOND
1		43		22		1
2		42		21		1
3		44		24		1
4		22		21		ar
5		22		23		ar
6		21		20		ar
7		32		1		1
8		33		1		1
9		24		23		ar
10		24		25		ar
11		23		28		ar
12		1		34		1
13		1		2		1
14		20		19		1
15		20		29		ar
16		45		25		1
17		19		18		1
18		16		15		1
19		38		7		1
20		25		26		ar
21		17		18		ar
22		17		6		ar
23		18		31		ar
24		7		6		1
25		7		8		1
26		15		14		ar
27		15		8		ar
28		41		14		1
29		6		5		ar
30		31		4		ar
31		14		11		ar
32		8		9		ar
33		5		4		ar
34		4		3		1
35		28		29		ar
36		28		27		ar
37		11		10		ar
38		11		12		1
39		9		39		1
40		9		10		ar
41		10		40		1
42		2		3		1
43		2		35		1
44		2		36		1
45		12		13		3
46		3		37		1
47		29		30		1
48		26		27		ar
49		26		46		1
50		27		47		1

