@<TRIPOS>MOLECULE
XYZ-2009-APC-145-7B
 48 51 0 0 0
SMALL
MULLIKEN_CHARGES
****
Gaussian 16 #p B3LYP/6-31G* opt
@<TRIPOS>ATOM
1		C		-3.2231		5.6535		1.0976		C.2		1		UNL1		-0.3226
2		C		-4.2548		4.9329		0.6603		C.2		1		UNL1		-0.0466
3		C		-4.3374		4.3337		-0.7232		C.3		1		UNL1		-0.1850
4		N		-4.3872		2.8712		-0.7160		N.3		1		UNL1		-0.6316
5		C		-3.2965		2.0723		-0.6954		C.ar		1		UNL1		0.7135
6		N		-3.5305		0.7490		-0.5175		N.ar		1		UNL1		-0.5684
7		C		-2.4327		-0.0014		-0.5390		C.ar		1		UNL1		0.7267
8		N		-2.5012		-1.3631		-0.3726		N.pl3		1		UNL1		-0.7796
9		C		-3.5721		-2.2362		-0.1686		C.ar		1		UNL1		0.3821
10		C		-4.9192		-1.8371		-0.1048		C.ar		1		UNL1		-0.1542
11		C		-5.9118		-2.7874		0.0996		C.ar		1		UNL1		-0.1531
12		C		-5.5967		-4.1483		0.2450		C.ar		1		UNL1		0.1324
13		C		-6.6297		-5.1162		0.4549		C.1		1		UNL1		0.2282
14		N		-7.4699		-5.9036		0.6255		N.1		1		UNL1		-0.4831
15		C		-4.2493		-4.5448		0.1809		C.ar		1		UNL1		-0.1403
16		C		-3.2557		-3.6016		-0.0228		C.ar		1		UNL1		-0.2045
17		N		-1.1672		0.4450		-0.7157		N.ar		1		UNL1		-0.5557
18		C		-1.0939		1.7594		-0.8673		C.ar		1		UNL1		0.6864
19		O		0.1257		2.3249		-1.0544		O.3		1		UNL1		-0.5352
20		C		1.2575		1.5240		-1.0313		C.ar		1		UNL1		0.3311
21		C		1.8286		1.1683		-2.2725		C.ar		1		UNL1		-0.1508
22		C		3.0041		0.4608		-2.3139		C.ar		1		UNL1		-0.2010
23		C		3.6610		0.0770		-1.1153		C.ar		1		UNL1		0.1543
24		C		4.8766		-0.6566		-1.1472		C.ar		1		UNL1		-0.2261
25		C		5.4957		-1.0156		0.0243		C.ar		1		UNL1		0.0837
26		BR		7.1298		-2.0044		-0.0236		Br		1		UNL1		-0.1220
27		C		4.9476		-0.6684		1.2791		C.ar		1		UNL1		-0.1508
28		C		3.7713		0.0428		1.3352		C.ar		1		UNL1		-0.1882
29		C		3.0913		0.4377		0.1523		C.ar		1		UNL1		0.0937
30		C		1.8722		1.1755		0.1524		C.ar		1		UNL1		-0.0013
31		BR		1.0552		1.6990		1.7898		Br		1		UNL1		-0.0969
32		N		-2.0892		2.6372		-0.8723		N.ar		1		UNL1		-0.5314
33		H		-3.2019		6.0713		2.1007		H		1		UNL1		0.1462
34		H		-2.3574		5.8467		0.4686		H		1		UNL1		0.1577
35		H		-5.1035		4.7408		1.3180		H		1		UNL1		0.1271
36		H		-3.4720		4.6310		-1.3177		H		1		UNL1		0.1956
37		H		-5.2404		4.6814		-1.2404		H		1		UNL1		0.1576
38		H		-5.2586		2.4073		-0.5000		H		1		UNL1		0.3367
39		H		-1.5812		-1.7851		-0.4013		H		1		UNL1		0.3516
40		H		-5.1667		-0.7917		-0.2155		H		1		UNL1		0.1791
41		H		-6.9498		-2.4736		0.1478		H		1		UNL1		0.1572
42		H		-3.9899		-5.5926		0.2917		H		1		UNL1		0.1599
43		H		-2.2168		-3.9196		-0.0702		H		1		UNL1		0.1408
44		H		1.3161		1.4752		-3.1782		H		1		UNL1		0.1554
45		H		3.4462		0.1867		-3.2675		H		1		UNL1		0.1476
46		H		5.3074		-0.9283		-2.1053		H		1		UNL1		0.1577
47		H		5.4576		-0.9647		2.1890		H		1		UNL1		0.1599
48		H		3.3488		0.3099		2.2970		H		1		UNL1		0.1659
@<TRIPOS>BOND
1		45		22		1
2		44		21		1
3		22		21		ar
4		22		23		ar
5		21		20		ar
6		46		24		1
7		36		3		1
8		37		3		1
9		24		23		ar
10		24		25		ar
11		23		29		ar
12		19		20		1
13		19		18		1
14		20		30		ar
15		32		18		ar
16		32		5		ar
17		18		17		ar
18		3		4		1
19		3		2		1
20		4		5		1
21		4		38		1
22		17		7		ar
23		5		6		ar
24		7		6		ar
25		7		8		1
26		39		8		1
27		8		9		1
28		40		10		1
29		9		10		ar
30		9		16		ar
31		10		11		ar
32		43		16		1
33		26		25		1
34		16		15		ar
35		25		27		ar
36		11		41		1
37		11		12		ar
38		29		30		ar
39		29		28		ar
40		30		31		1
41		15		12		ar
42		15		42		1
43		12		13		1
44		13		14		3
45		34		1		1
46		2		1		2
47		2		35		1
48		1		33		1
49		27		28		ar
50		27		47		1
51		28		48		1

