@<TRIPOS>MOLECULE
XYZ-2008-EJMC-1230-8F
 47 50 0 0 0
SMALL
MULLIKEN_CHARGES
****
Gaussian 16 #p B3LYP/6-31G* opt
@<TRIPOS>ATOM
1		C		1.3161		3.3383		1.4822		C.3		1		UNL1		-0.4431
2		C		0.7233		3.3407		0.0702		C.3		1		UNL1		-0.1281
3		N		-0.5416		2.6189		-0.0314		N.3		1		UNL1		-0.6276
4		C		-0.6540		1.2856		-0.2080		C.ar		1		UNL1		0.7050
5		N		-1.9068		0.7751		-0.1820		N.ar		1		UNL1		-0.5674
6		C		-1.9573		-0.5426		-0.3748		C.ar		1		UNL1		0.7201
7		N		-3.1594		-1.2084		-0.3762		N.pl3		1		UNL1		-0.7779
8		C		-4.4776		-0.7802		-0.2069		C.ar		1		UNL1		0.3819
9		C		-4.8558		0.5565		0.0135		C.ar		1		UNL1		-0.1545
10		C		-6.1984		0.8777		0.1695		C.ar		1		UNL1		-0.1531
11		C		-7.1943		-0.1109		0.1112		C.ar		1		UNL1		0.1322
12		C		-8.5734		0.2345		0.2740		C.1		1		UNL1		0.2280
13		N		-9.6953		0.5155		0.4067		N.1		1		UNL1		-0.4834
14		C		-6.8140		-1.4464		-0.1099		C.ar		1		UNL1		-0.1403
15		C		-5.4769		-1.7723		-0.2659		C.ar		1		UNL1		-0.2044
16		N		-0.9029		-1.3621		-0.5813		N.ar		1		UNL1		-0.5525
17		C		0.2603		-0.7236		-0.5833		C.ar		1		UNL1		0.6741
18		O		1.3245		-1.5373		-0.7848		O.3		1		UNL1		-0.5441
19		C		2.6091		-0.9930		-0.8125		C.ar		1		UNL1		0.2931
20		C		3.1261		-0.5423		-2.0000		C.ar		1		UNL1		-0.1501
21		C		4.4548		-0.0673		-2.0515		C.ar		1		UNL1		-0.1586
22		C		5.2279		-0.0613		-0.9141		C.ar		1		UNL1		-0.1309
23		CL		6.8773		0.5476		-1.0316		Cl		1		UNL1		-0.0143
24		C		4.7329		-0.5348		0.3365		C.ar		1		UNL1		0.1241
25		C		5.4986		-0.5565		1.5324		C.ar		1		UNL1		-0.1983
26		C		4.9609		-1.0337		2.7063		C.ar		1		UNL1		-0.1297
27		C		3.6324		-1.5178		2.7445		C.ar		1		UNL1		-0.1324
28		C		2.8598		-1.5115		1.6060		C.ar		1		UNL1		-0.1920
29		C		3.3807		-1.0188		0.3807		C.ar		1		UNL1		0.1254
30		N		0.4747		0.5752		-0.4052		N.ar		1		UNL1		-0.5367
31		H		0.6251		3.7870		2.2050		H		1		UNL1		0.1438
32		H		1.5376		2.3151		1.8005		H		1		UNL1		0.1747
33		H		2.2493		3.9127		1.5011		H		1		UNL1		0.1525
34		H		1.4219		2.8797		-0.6316		H		1		UNL1		0.1898
35		H		0.5370		4.3653		-0.2692		H		1		UNL1		0.1497
36		H		-1.4047		3.0957		0.1894		H		1		UNL1		0.3376
37		H		-3.0288		-2.2001		-0.5339		H		1		UNL1		0.3519
38		H		-4.0941		1.3208		0.0588		H		1		UNL1		0.1785
39		H		-6.4841		1.9111		0.3391		H		1		UNL1		0.1568
40		H		-7.5717		-2.2217		-0.1578		H		1		UNL1		0.1598
41		H		-5.1944		-2.8085		-0.4363		H		1		UNL1		0.1408
42		H		2.5114		-0.5516		-2.8937		H		1		UNL1		0.1504
43		H		4.8656		0.2930		-2.9881		H		1		UNL1		0.1593
44		H		6.5193		-0.1922		1.5070		H		1		UNL1		0.1595
45		H		5.5634		-1.0430		3.6103		H		1		UNL1		0.1385
46		H		3.2235		-1.8995		3.6758		H		1		UNL1		0.1382
47		H		1.8457		-1.8955		1.6240		H		1		UNL1		0.1543
@<TRIPOS>BOND
1		43		21		1
2		42		20		1
3		21		20		ar
4		21		22		ar
5		20		19		ar
6		23		22		1
7		22		24		ar
8		19		18		1
9		19		29		ar
10		18		17		1
11		34		2		1
12		17		16		ar
13		17		30		ar
14		16		6		ar
15		37		7		1
16		41		15		1
17		30		4		ar
18		7		6		1
19		7		8		1
20		6		5		ar
21		35		2		1
22		15		8		ar
23		15		14		ar
24		4		5		ar
25		4		3		1
26		8		9		ar
27		40		14		1
28		14		11		ar
29		3		2		1
30		3		36		1
31		9		38		1
32		9		10		ar
33		2		1		1
34		11		10		ar
35		11		12		1
36		10		39		1
37		12		13		3
38		24		29		ar
39		24		25		ar
40		29		28		ar
41		1		33		1
42		1		32		1
43		1		31		1
44		44		25		1
45		25		26		ar
46		28		47		1
47		28		27		ar
48		26		27		ar
49		26		45		1
50		27		46		1

