@<TRIPOS>MOLECULE
XYZ-2008-EJMC-1230-8C
 50 53 0 0 0
SMALL
MULLIKEN_CHARGES
****
Gaussian 16 #p B3LYP/6-31G* opt
@<TRIPOS>ATOM
1		C		2.8905		4.6164		0.0908		C.3		1		UNL1		-0.4507
2		C		1.5617		3.8862		-0.1262		C.3		1		UNL1		-0.2507
3		C		1.1894		3.0001		1.0708		C.3		1		UNL1		-0.1227
4		N		-0.0719		2.2875		0.9041		N.3		1		UNL1		-0.6368
5		C		-0.2061		1.0966		0.2822		C.ar		1		UNL1		0.7058
6		N		-1.4657		0.6184		0.1570		N.ar		1		UNL1		-0.5689
7		C		-1.5333		-0.5699		-0.4427		C.ar		1		UNL1		0.7195
8		N		-2.7451		-1.1878		-0.6446		N.pl3		1		UNL1		-0.7781
9		C		-4.0555		-0.8236		-0.3317		C.ar		1		UNL1		0.3823
10		C		-4.4130		0.3684		0.3245		C.ar		1		UNL1		-0.1547
11		C		-5.7497		0.6363		0.5909		C.ar		1		UNL1		-0.1533
12		C		-6.7609		-0.2639		0.2165		C.ar		1		UNL1		0.1317
13		C		-8.1338		0.0255		0.4973		C.1		1		UNL1		0.2274
14		N		-9.2508		0.2610		0.7256		N.1		1		UNL1		-0.4844
15		C		-6.4015		-1.4547		-0.4391		C.ar		1		UNL1		-0.1405
16		C		-5.0703		-1.7270		-0.7072		C.ar		1		UNL1		-0.2045
17		N		-0.4922		-1.2923		-0.9091		N.ar		1		UNL1		-0.5532
18		C		0.6810		-0.6979		-0.7230		C.ar		1		UNL1		0.6744
19		O		1.7305		-1.4132		-1.1871		O.3		1		UNL1		-0.5426
20		C		3.0240		-0.8942		-1.0703		C.ar		1		UNL1		0.2859
21		C		3.5173		-0.0831		-2.0619		C.ar		1		UNL1		-0.1539
22		C		4.8532		0.3769		-1.9891		C.ar		1		UNL1		-0.1519
23		C		5.6598		0.0124		-0.9353		C.ar		1		UNL1		-0.1804
24		C		5.1711		-0.8376		0.0930		C.ar		1		UNL1		0.1206
25		C		5.9811		-1.2404		1.1890		C.ar		1		UNL1		-0.1963
26		C		5.4854		-2.0711		2.1679		C.ar		1		UNL1		-0.1305
27		C		4.1522		-2.5436		2.0953		C.ar		1		UNL1		-0.1369
28		C		3.3359		-2.1743		1.0499		C.ar		1		UNL1		-0.1878
29		C		3.8195		-1.3124		0.0305		C.ar		1		UNL1		0.1189
30		N		0.9106		0.4788		-0.1498		N.ar		1		UNL1		-0.5361
31		H		2.8532		5.2629		0.9765		H		1		UNL1		0.1426
32		H		3.7132		3.9053		0.2308		H		1		UNL1		0.1554
33		H		3.1383		5.2472		-0.7695		H		1		UNL1		0.1503
34		H		0.7570		4.6124		-0.3046		H		1		UNL1		0.1312
35		H		1.6227		3.2523		-1.0186		H		1		UNL1		0.1579
36		H		1.9706		2.2545		1.2390		H		1		UNL1		0.1888
37		H		1.1052		3.6054		1.9812		H		1		UNL1		0.1444
38		H		-0.9392		2.7438		1.1494		H		1		UNL1		0.3365
39		H		-2.6283		-2.0777		-1.1135		H		1		UNL1		0.3513
40		H		-3.6393		1.0638		0.6147		H		1		UNL1		0.1784
41		H		-6.0190		1.5577		1.0978		H		1		UNL1		0.1561
42		H		-7.1710		-2.1605		-0.7347		H		1		UNL1		0.1589
43		H		-4.8041		-2.6511		-1.2149		H		1		UNL1		0.1403
44		H		2.8756		0.1962		-2.8912		H		1		UNL1		0.1409
45		H		5.2364		1.0202		-2.7760		H		1		UNL1		0.1359
46		H		6.6866		0.3650		-0.8792		H		1		UNL1		0.1311
47		H		7.0060		-0.8804		1.2385		H		1		UNL1		0.1322
48		H		6.1175		-2.3713		2.9992		H		1		UNL1		0.1328
49		H		3.7739		-3.2049		2.8699		H		1		UNL1		0.1338
50		H		2.3188		-2.5459		0.9861		H		1		UNL1		0.1494
@<TRIPOS>BOND
1		44		21		1
2		45		22		1
3		21		22		ar
4		21		20		ar
5		22		23		ar
6		43		16		1
7		19		20		1
8		19		18		1
9		39		8		1
10		20		29		ar
11		35		2		1
12		23		46		1
13		23		24		ar
14		17		18		ar
15		17		7		ar
16		33		1		1
17		42		15		1
18		18		30		ar
19		16		15		ar
20		16		9		ar
21		8		7		1
22		8		9		1
23		7		6		ar
24		15		12		ar
25		9		10		ar
26		34		2		1
27		30		5		ar
28		2		1		1
29		2		3		1
30		29		24		ar
31		29		28		ar
32		1		32		1
33		1		31		1
34		24		25		ar
35		6		5		ar
36		12		13		1
37		12		11		ar
38		5		4		1
39		10		11		ar
40		10		40		1
41		13		14		3
42		11		41		1
43		4		3		1
44		4		38		1
45		50		28		1
46		28		27		ar
47		3		36		1
48		3		37		1
49		25		47		1
50		25		26		ar
51		27		26		ar
52		27		49		1
53		26		48		1

