@<TRIPOS>MOLECULE
XYZ-2009-CB-561-8J
 44 47 0 0 0
SMALL
MULLIKEN_CHARGES
****
Gaussian 16 #p B3LYP/6-31G* opt
@<TRIPOS>ATOM
1		C		-3.3024		4.3603		0.1168		C.3		1		UNL1		-0.2925
2		N		-1.8650		4.2620		-0.0518		N.3		1		UNL1		-0.6221
3		C		-1.1837		3.1026		-0.1551		C.ar		1		UNL1		0.6974
4		N		-1.8888		1.9504		-0.1173		N.ar		1		UNL1		-0.5665
5		C		-1.1327		0.8575		-0.2306		C.ar		1		UNL1		0.7276
6		N		-1.7057		-0.3912		-0.2111		N.pl3		1		UNL1		-0.7852
7		C		-3.0283		-0.7993		-0.0847		C.ar		1		UNL1		0.3237
8		C		-4.1488		0.0352		0.0611		C.ar		1		UNL1		-0.1633
9		C		-5.4222		-0.5134		0.1770		C.ar		1		UNL1		-0.1509
10		C		-5.6188		-1.9029		0.1516		C.ar		1		UNL1		0.1341
11		C		-6.9337		-2.4546		0.2713		C.1		1		UNL1		0.2310
12		N		-8.0046		-2.9002		0.3684		N.1		1		UNL1		-0.4787
13		C		-4.5070		-2.7531		0.0066		C.ar		1		UNL1		-0.2149
14		C		-3.2558		-2.1895		-0.1066		C.ar		1		UNL1		0.3163
15		F		-2.1729		-2.9937		-0.2476		F		1		UNL1		-0.2970
16		N		0.2076		0.8250		-0.3711		N.ar		1		UNL1		-0.5549
17		C		0.7639		2.0333		-0.3847		C.ar		1		UNL1		0.6867
18		O		2.1086		2.1255		-0.5160		O.3		1		UNL1		-0.5324
19		C		2.8628		0.9658		-0.6341		C.ar		1		UNL1		0.3587
20		C		3.1031		0.4509		-1.9267		C.ar		1		UNL1		-0.1412
21		C		3.9272		-0.6340		-2.0912		C.ar		1		UNL1		-0.2064
22		C		4.5500		-1.2515		-0.9745		C.ar		1		UNL1		0.1545
23		C		5.4065		-2.3738		-1.1290		C.ar		1		UNL1		-0.1959
24		C		6.0074		-2.9634		-0.0410		C.ar		1		UNL1		-0.1306
25		C		5.7753		-2.4506		1.2568		C.ar		1		UNL1		-0.1333
26		C		4.9517		-1.3633		1.4464		C.ar		1		UNL1		-0.1944
27		C		4.3163		-0.7326		0.3439		C.ar		1		UNL1		0.1230
28		C		3.4526		0.3961		0.4744		C.ar		1		UNL1		-0.1860
29		CL		3.1256		1.0799		2.0536		Cl		1		UNL1		0.0125
30		N		0.1548		3.2061		-0.2893		N.ar		1		UNL1		-0.5340
31		H		-3.6312		3.8740		1.0422		H		1		UNL1		0.1761
32		H		-3.5707		5.4180		0.1610		H		1		UNL1		0.1620
33		H		-3.8325		3.8976		-0.7227		H		1		UNL1		0.1766
34		H		-1.2957		5.0954		-0.0680		H		1		UNL1		0.3489
35		H		-1.0244		-1.1351		-0.2993		H		1		UNL1		0.3629
36		H		-3.9985		1.1047		0.0814		H		1		UNL1		0.1957
37		H		-6.2787		0.1429		0.2892		H		1		UNL1		0.1594
38		H		-4.6144		-3.8314		-0.0175		H		1		UNL1		0.1744
39		H		2.6266		0.9393		-2.7702		H		1		UNL1		0.1490
40		H		4.1148		-1.0326		-3.0845		H		1		UNL1		0.1418
41		H		5.5780		-2.7591		-2.1311		H		1		UNL1		0.1359
42		H		6.6598		-3.8216		-0.1747		H		1		UNL1		0.1363
43		H		6.2519		-2.9194		2.1132		H		1		UNL1		0.1376
44		H		4.7795		-0.9770		2.4445		H		1		UNL1		0.1580
@<TRIPOS>BOND
1		40		21		1
2		39		20		1
3		41		23		1
4		21		20		ar
5		21		22		ar
6		20		19		ar
7		23		22		ar
8		23		24		ar
9		22		27		ar
10		33		1		1
11		19		18		1
12		19		28		ar
13		18		17		1
14		17		16		ar
15		17		30		ar
16		16		5		ar
17		35		6		1
18		30		3		ar
19		15		14		1
20		5		6		1
21		5		4		ar
22		6		7		1
23		42		24		1
24		3		4		ar
25		3		2		1
26		14		7		ar
27		14		13		ar
28		7		8		ar
29		34		2		1
30		2		1		1
31		24		25		ar
32		38		13		1
33		13		10		ar
34		8		36		1
35		8		9		ar
36		1		32		1
37		1		31		1
38		10		9		ar
39		10		11		1
40		9		37		1
41		11		12		3
42		27		28		ar
43		27		26		ar
44		28		29		1
45		25		26		ar
46		25		43		1
47		26		44		1

