@<TRIPOS>MOLECULE
XYZ-2008-EJMC-1230-9Q
 41 44 0 0 0
SMALL
MULLIKEN_CHARGES
****
Gaussian 16 #p B3LYP/6-31G* opt
@<TRIPOS>ATOM
1		N		-8.6050		-4.0342		0.1828		N.1		1		UNL1		-0.4824
2		C		-7.6421		-3.3811		0.1454		C.1		1		UNL1		0.2286
3		C		-6.4583		-2.5783		0.0990		C.ar		1		UNL1		0.1327
4		C		-5.1908		-3.1804		0.0115		C.ar		1		UNL1		-0.1401
5		C		-4.0500		-2.3961		-0.0334		C.ar		1		UNL1		-0.2047
6		C		-4.1358		-0.9902		0.0074		C.ar		1		UNL1		0.3812
7		N		-2.9290		-0.2876		-0.0444		N.pl3		1		UNL1		-0.7783
8		C		-2.6341		1.0530		-0.0217		C.ar		1		UNL1		0.7204
9		N		-3.6015		1.9659		0.0574		N.ar		1		UNL1		-0.5515
10		C		-3.1465		3.2383		0.0730		C.ar		1		UNL1		0.6749
11		N		-4.0713		4.2173		0.1676		N.3		1		UNL1		-0.7728
12		N		-1.8596		3.6210		0.0110		N.ar		1		UNL1		-0.5196
13		C		-1.0118		2.5991		-0.0645		C.ar		1		UNL1		0.6719
14		O		0.2844		2.9764		-0.1124		O.3		1		UNL1		-0.5350
15		C		1.2874		2.0206		-0.2754		C.ar		1		UNL1		0.3572
16		C		1.4299		1.3492		-1.5125		C.ar		1		UNL1		-0.1358
17		C		2.4850		0.4881		-1.6958		C.ar		1		UNL1		-0.2066
18		C		3.4380		0.2659		-0.6639		C.ar		1		UNL1		0.1455
19		C		4.5351		-0.6194		-0.8334		C.ar		1		UNL1		-0.2212
20		C		5.4330		-0.7998		0.1909		C.ar		1		UNL1		0.0789
21		BR		6.9096		-1.9942		-0.0377		Br		1		UNL1		-0.1286
22		C		5.2974		-0.1211		1.4238		C.ar		1		UNL1		-0.1526
23		C		4.2413		0.7421		1.6061		C.ar		1		UNL1		-0.1904
24		C		3.2850		0.9615		0.5790		C.ar		1		UNL1		0.1354
25		C		2.1858		1.8444		0.7463		C.ar		1		UNL1		-0.2359
26		N		-1.3073		1.3043		-0.0856		N.ar		1		UNL1		-0.5563
27		C		-5.4024		-0.3855		0.0953		C.ar		1		UNL1		-0.1542
28		C		-6.5434		-1.1771		0.1401		C.ar		1		UNL1		-0.1528
29		H		-5.1088		-4.2619		-0.0207		H		1		UNL1		0.1606
30		H		-3.0747		-2.8725		-0.1008		H		1		UNL1		0.1411
31		H		-2.0885		-0.8495		-0.1017		H		1		UNL1		0.3519
32		H		-5.0511		3.9843		0.1438		H		1		UNL1		0.3517
33		H		-3.7730		5.1786		0.1150		H		1		UNL1		0.3572
34		H		0.7052		1.5266		-2.2997		H		1		UNL1		0.1468
35		H		2.6051		-0.0321		-2.6425		H		1		UNL1		0.1423
36		H		4.6573		-1.1485		-1.7730		H		1		UNL1		0.1542
37		H		6.0251		-0.2867		2.2105		H		1		UNL1		0.1563
38		H		4.1302		1.2683		2.5507		H		1		UNL1		0.1443
39		H		2.0546		2.3865		1.6778		H		1		UNL1		0.1479
40		H		-5.4734		0.6917		0.1279		H		1		UNL1		0.1801
41		H		-7.5185		-0.7051		0.2083		H		1		UNL1		0.1579
@<TRIPOS>BOND
1		35		17		1
2		34		16		1
3		36		19		1
4		17		16		ar
5		17		18		ar
6		16		15		ar
7		19		18		ar
8		19		20		ar
9		18		24		ar
10		15		14		1
11		15		25		ar
12		14		13		1
13		31		7		1
14		30		5		1
15		26		13		ar
16		26		8		ar
17		13		12		ar
18		7		8		1
19		7		6		1
20		21		20		1
21		5		6		ar
22		5		4		ar
23		8		9		ar
24		29		4		1
25		6		27		ar
26		12		10		ar
27		4		3		ar
28		9		10		ar
29		10		11		1
30		27		40		1
31		27		28		ar
32		3		28		ar
33		3		2		1
34		33		11		1
35		28		41		1
36		32		11		1
37		2		1		3
38		20		22		ar
39		24		25		ar
40		24		23		ar
41		25		39		1
42		22		23		ar
43		22		37		1
44		23		38		1

