@<TRIPOS>MOLECULE
XYZ-2009-APC-145-7C
 48 51 0 0 0
SMALL
MULLIKEN_CHARGES
****
Gaussian 16 #p B3LYP/6-31G* opt
@<TRIPOS>ATOM
1		C		-0.1959		3.6094		0.5739		C.2		1		UNL1		-0.3435
2		C		-1.0766		3.8435		-0.3989		C.2		1		UNL1		-0.0657
3		C		-1.3337		2.9619		-1.6011		C.3		1		UNL1		-0.1846
4		N		-0.4159		1.8446		-1.7291		N.3		1		UNL1		-0.6196
5		C		-0.5966		0.6315		-1.1475		C.ar		1		UNL1		0.6970
6		N		-1.8335		0.2604		-0.7681		N.ar		1		UNL1		-0.5607
7		C		-1.8840		-0.9526		-0.2086		C.ar		1		UNL1		0.7198
8		N		-3.0814		-1.4898		0.1975		N.pl3		1		UNL1		-0.7807
9		C		-4.3963		-1.0231		0.1499		C.ar		1		UNL1		0.3803
10		C		-5.3868		-1.8693		0.6879		C.ar		1		UNL1		-0.2027
11		C		-6.7207		-1.4961		0.6845		C.ar		1		UNL1		-0.1408
12		C		-7.1065		-0.2587		0.1397		C.ar		1		UNL1		0.1324
13		C		-8.4823		0.1348		0.1321		C.1		1		UNL1		0.2281
14		N		-9.6015		0.4550		0.1257		N.1		1		UNL1		-0.4839
15		C		-6.1194		0.5843		-0.3966		C.ar		1		UNL1		-0.1576
16		C		-4.7803		0.2148		-0.3955		C.ar		1		UNL1		-0.1577
17		N		-0.8348		-1.7636		0.0379		N.ar		1		UNL1		-0.5499
18		C		0.3195		-1.2580		-0.3765		C.ar		1		UNL1		0.6835
19		O		1.3926		-2.0375		-0.0926		O.3		1		UNL1		-0.5352
20		C		2.6696		-1.5556		-0.3447		C.ar		1		UNL1		0.3277
21		C		3.3961		-2.1997		-1.3697		C.ar		1		UNL1		-0.1555
22		C		4.6980		-1.8442		-1.6198		C.ar		1		UNL1		-0.2023
23		C		5.3326		-0.8256		-0.8627		C.ar		1		UNL1		0.1526
24		C		6.6767		-0.4419		-1.1155		C.ar		1		UNL1		-0.1960
25		C		7.2839		0.5468		-0.3771		C.ar		1		UNL1		-0.1309
26		C		6.5654		1.1980		0.6531		C.ar		1		UNL1		-0.1331
27		C		5.2615		0.8524		0.9282		C.ar		1		UNL1		-0.1891
28		C		4.6050		-0.1658		0.1860		C.ar		1		UNL1		0.0881
29		C		3.2591		-0.5723		0.4230		C.ar		1		UNL1		0.0040
30		BR		2.2447		0.2392		1.8202		Br		1		UNL1		-0.1028
31		N		0.5202		-0.1125		-1.0102		N.ar		1		UNL1		-0.5351
32		H		-0.0842		4.3055		1.4003		H		1		UNL1		0.1465
33		H		0.4357		2.7241		0.6009		H		1		UNL1		0.1585
34		H		-1.6887		4.7456		-0.3663		H		1		UNL1		0.1347
35		H		-2.3494		2.5570		-1.5638		H		1		UNL1		0.2005
36		H		-1.2739		3.5635		-2.5180		H		1		UNL1		0.1632
37		H		0.5612		2.0675		-1.8738		H		1		UNL1		0.3432
38		H		-2.9480		-2.4030		0.6146		H		1		UNL1		0.3527
39		H		-5.0999		-2.8286		1.1120		H		1		UNL1		0.1412
40		H		-7.4715		-2.1586		1.1026		H		1		UNL1		0.1595
41		H		-6.4092		1.5413		-0.8191		H		1		UNL1		0.1560
42		H		-4.0250		0.8668		-0.8081		H		1		UNL1		0.1954
43		H		2.8953		-2.9761		-1.9384		H		1		UNL1		0.1535
44		H		5.2584		-2.3400		-2.4076		H		1		UNL1		0.1428
45		H		7.2177		-0.9494		-1.9104		H		1		UNL1		0.1364
46		H		8.3125		0.8299		-0.5821		H		1		UNL1		0.1365
47		H		7.0472		1.9799		1.2335		H		1		UNL1		0.1375
48		H		4.7164		1.3562		1.7181		H		1		UNL1		0.1557
@<TRIPOS>BOND
1		36		3		1
2		44		22		1
3		43		21		1
4		45		24		1
5		37		4		1
6		4		3		1
7		4		5		1
8		22		21		ar
9		22		23		ar
10		3		35		1
11		3		2		1
12		21		20		ar
13		5		31		ar
14		5		6		ar
15		24		23		ar
16		24		25		ar
17		31		18		ar
18		23		28		ar
19		41		15		1
20		42		16		1
21		6		7		ar
22		46		25		1
23		2		34		1
24		2		1		2
25		15		16		ar
26		15		12		ar
27		16		9		ar
28		25		26		ar
29		18		19		1
30		18		17		ar
31		20		19		1
32		20		29		ar
33		7		17		ar
34		7		8		1
35		14		13		3
36		13		12		1
37		12		11		ar
38		9		8		1
39		9		10		ar
40		28		29		ar
41		28		27		ar
42		8		38		1
43		29		30		1
44		1		33		1
45		1		32		1
46		26		27		ar
47		26		47		1
48		11		10		ar
49		11		40		1
50		10		39		1
51		27		48		1

