@<TRIPOS>MOLECULE
XYZ-2009-APC-145-6A
 48 51 0 0 0
SMALL
MULLIKEN_CHARGES
****
Gaussian 16 #p B3LYP/6-31G* opt
@<TRIPOS>ATOM
1		C		7.9945		0.6109		-0.1148		C.2		1		UNL1		-0.3377
2		C		6.6971		0.7433		-0.3899		C.2		1		UNL1		-0.0529
3		C		5.5969		0.5895		0.6277		C.3		1		UNL1		-0.1756
4		N		4.6587		-0.4602		0.2518		N.3		1		UNL1		-0.6347
5		C		3.3240		-0.3151		0.0861		C.ar		1		UNL1		0.7027
6		N		2.7679		0.8893		0.3011		N.ar		1		UNL1		-0.5783
7		C		1.4397		0.9199		0.1110		C.ar		1		UNL1		0.7236
8		N		0.8734		2.1514		0.3319		N.pl3		1		UNL1		-0.7775
9		C		-0.4440		2.6122		0.2425		C.ar		1		UNL1		0.3778
10		C		-1.5411		1.8153		-0.1319		C.ar		1		UNL1		-0.1614
11		C		-2.8109		2.3760		-0.1907		C.ar		1		UNL1		-0.1580
12		C		-3.0247		3.7297		0.1169		C.ar		1		UNL1		0.1324
13		C		-4.3384		4.2936		0.0508		C.1		1		UNL1		0.2280
14		N		-5.4065		4.7533		-0.0035		N.1		1		UNL1		-0.4852
15		C		-1.9264		4.5235		0.4909		C.ar		1		UNL1		-0.1410
16		C		-0.6578		3.9703		0.5517		C.ar		1		UNL1		-0.2047
17		N		0.6702		-0.1126		-0.2588		N.ar		1		UNL1		-0.5466
18		C		1.3568		-1.2447		-0.4380		C.ar		1		UNL1		0.6817
19		O		0.6820		-2.3555		-0.8100		O.3		1		UNL1		-0.5407
20		C		-0.7023		-2.2992		-0.9991		C.ar		1		UNL1		0.2812
21		C		-1.2090		-1.8796		-2.2046		C.ar		1		UNL1		-0.1551
22		C		-2.6074		-1.8996		-2.4198		C.ar		1		UNL1		-0.1529
23		C		-3.4590		-2.3427		-1.4333		C.ar		1		UNL1		-0.1824
24		C		-2.9519		-2.7951		-0.1853		C.ar		1		UNL1		0.1206
25		C		-3.8034		-3.2668		0.8499		C.ar		1		UNL1		-0.1952
26		C		-3.2855		-3.7047		2.0475		C.ar		1		UNL1		-0.1296
27		C		-1.8863		-3.6952		2.2663		C.ar		1		UNL1		-0.1358
28		C		-1.0287		-3.2442		1.2884		C.ar		1		UNL1		-0.1874
29		C		-1.5367		-2.7805		0.0461		C.ar		1		UNL1		0.1154
30		N		2.6578		-1.4324		-0.2906		N.ar		1		UNL1		-0.5393
31		H		8.3442		0.3741		0.8883		H		1		UNL1		0.1432
32		H		8.7582		0.7420		-0.8764		H		1		UNL1		0.1512
33		H		6.3715		0.9735		-1.4043		H		1		UNL1		0.1419
34		H		6.0253		0.3750		1.6163		H		1		UNL1		0.1551
35		H		5.0110		1.5088		0.7133		H		1		UNL1		0.1963
36		H		5.0120		-1.3880		0.0592		H		1		UNL1		0.3434
37		H		1.5657		2.8357		0.6095		H		1		UNL1		0.3453
38		H		-1.3887		0.7729		-0.3701		H		1		UNL1		0.2084
39		H		-3.6520		1.7541		-0.4800		H		1		UNL1		0.1604
40		H		-2.0751		5.5711		0.7319		H		1		UNL1		0.1576
41		H		0.1846		4.5938		0.8424		H		1		UNL1		0.1363
42		H		-0.5312		-1.5340		-2.9782		H		1		UNL1		0.1428
43		H		-3.0017		-1.5625		-3.3741		H		1		UNL1		0.1392
44		H		-4.5332		-2.3589		-1.5989		H		1		UNL1		0.1343
45		H		-4.8768		-3.2768		0.6769		H		1		UNL1		0.1345
46		H		-3.9495		-4.0627		2.8295		H		1		UNL1		0.1342
47		H		-1.4887		-4.0494		3.2134		H		1		UNL1		0.1340
48		H		0.0441		-3.2478		1.4493		H		1		UNL1		0.1504
@<TRIPOS>BOND
1		43		22		1
2		42		21		1
3		22		21		ar
4		22		23		ar
5		21		20		ar
6		44		23		1
7		23		24		ar
8		33		2		1
9		20		19		1
10		20		29		ar
11		32		1		1
12		19		18		1
13		39		11		1
14		18		30		ar
15		18		17		ar
16		2		1		2
17		2		3		1
18		38		10		1
19		30		5		ar
20		17		7		ar
21		11		10		ar
22		11		12		ar
23		24		29		ar
24		24		25		ar
25		10		9		ar
26		1		31		1
27		14		13		3
28		29		28		ar
29		13		12		1
30		36		4		1
31		5		4		1
32		5		6		ar
33		7		6		ar
34		7		8		1
35		12		15		ar
36		9		8		1
37		9		16		ar
38		4		3		1
39		8		37		1
40		15		16		ar
41		15		40		1
42		16		41		1
43		3		35		1
44		3		34		1
45		45		25		1
46		25		26		ar
47		28		48		1
48		28		27		ar
49		26		27		ar
50		26		46		1
51		27		47		1

