@<TRIPOS>MOLECULE
YSQ-2012-CMC-152-13
 32 34 0 0 0
SMALL
MULLIKEN_CHARGES
****
Gaussian 16 #p B3LYP/6-31G* opt
@<TRIPOS>ATOM
1		O		-1.8174		3.8733		-0.5003		O.2		1		UNL1		-0.5226
2		C		-1.3999		2.7877		-0.1271		C.ar		1		UNL1		0.6151
3		C		-0.1266		2.4693		0.4776		C.ar		1		UNL1		-0.2655
4		C		0.1712		1.1806		0.8245		C.ar		1		UNL1		0.3385
5		C		1.5008		0.7924		1.4418		C.3		1		UNL1		-0.4121
6		C		2.3203		-0.0822		0.5168		C.ar		1		UNL1		0.0055
7		C		2.2381		-1.4763		0.5224		C.ar		1		UNL1		0.3491
8		F		1.4087		-2.0669		1.4104		F		1		UNL1		-0.2919
9		C		2.9756		-2.2872		-0.3327		C.ar		1		UNL1		-0.1939
10		C		3.8387		-1.6837		-1.2477		C.ar		1		UNL1		-0.1341
11		C		3.9580		-0.2944		-1.2997		C.ar		1		UNL1		-0.1934
12		C		3.1957		0.4670		-0.4227		C.ar		1		UNL1		0.3420
13		F		3.3066		1.8136		-0.4684		F		1		UNL1		-0.2931
14		N		-0.6892		0.1264		0.6414		N.ar		1		UNL1		-0.5606
15		C		-1.8433		0.3842		0.0960		C.ar		1		UNL1		0.8069
16		N		-2.7359		-0.6679		-0.1084		N.ar		1		UNL1		-0.5236
17		C		-4.0516		-0.6072		-0.5679		C.ar		1		UNL1		0.0251
18		C		-4.5413		-1.8831		-0.6145		C.ar		1		UNL1		-0.1838
19		C		-3.5006		-2.7645		-0.1725		C.ar		1		UNL1		-0.1945
20		C		-2.4087		-2.0022		0.1339		C.ar		1		UNL1		0.0516
21		N		-2.2228		1.6333		-0.2868		N.ar		1		UNL1		-0.7097
22		H		0.5729		3.2827		0.6259		H		1		UNL1		0.1574
23		H		2.0672		1.6922		1.6928		H		1		UNL1		0.1715
24		H		1.2998		0.2423		2.3664		H		1		UNL1		0.1837
25		H		2.8650		-3.3642		-0.2705		H		1		UNL1		0.1493
26		H		4.4224		-2.3000		-1.9246		H		1		UNL1		0.1474
27		H		4.6207		0.2019		-2.0000		H		1		UNL1		0.1507
28		H		-4.5379		0.3291		-0.7963		H		1		UNL1		0.1554
29		H		-5.5390		-2.1610		-0.9259		H		1		UNL1		0.1421
30		H		-3.5583		-3.8413		-0.0920		H		1		UNL1		0.1412
31		H		-1.4234		-2.2451		0.4977		H		1		UNL1		0.1950
32		H		-3.1101		1.8117		-0.7414		H		1		UNL1		0.3513
@<TRIPOS>BOND
1		27		11		1
2		26		10		1
3		11		10		ar
4		11		12		ar
5		10		9		ar
6		29		18		1
7		28		17		1
8		32		21		1
9		18		17		ar
10		18		19		ar
11		17		16		ar
12		1		2		2
13		13		12		1
14		12		6		ar
15		9		25		1
16		9		7		ar
17		21		2		ar
18		21		15		ar
19		19		30		1
20		19		20		ar
21		2		3		ar
22		16		15		1
23		16		20		ar
24		15		14		ar
25		20		31		1
26		3		22		1
27		3		4		ar
28		6		7		ar
29		6		5		1
30		7		8		1
31		14		4		ar
32		4		5		1
33		5		23		1
34		5		24		1

