@<TRIPOS>MOLECULE
YSQ-2012-CMC-152-15
 44 45 0 0 0
SMALL
MULLIKEN_CHARGES
****
Gaussian 16 #p B3LYP/6-31G* opt
@<TRIPOS>ATOM
1		C		-0.5665		3.4131		0.1014		C.3		1		UNL1		-0.5479
2		C		0.2151		2.1228		0.1843		C.ar		1		UNL1		0.0340
3		C		-0.2122		0.9027		0.6650		C.ar		1		UNL1		0.2468
4		C		-1.5864		0.5656		1.2716		C.3		1		UNL1		-0.2113
5		C		-2.4251		1.6957		1.8930		C.3		1		UNL1		-0.4630
6		C		-2.3802		-0.2978		0.2928		C.ar		1		UNL1		0.0147
7		C		-3.0423		0.1998		-0.8335		C.ar		1		UNL1		0.3340
8		F		-2.9859		1.5300		-1.0857		F		1		UNL1		-0.2885
9		C		-3.7640		-0.5880		-1.7224		C.ar		1		UNL1		-0.1914
10		C		-3.8311		-1.9620		-1.4958		C.ar		1		UNL1		-0.1352
11		C		-3.1819		-2.5221		-0.3967		C.ar		1		UNL1		-0.1942
12		C		-2.4767		-1.6840		0.4595		C.ar		1		UNL1		0.3416
13		F		-1.8534		-2.2540		1.5175		F		1		UNL1		-0.2959
14		N		0.5599		-0.2331		0.6672		N.ar		1		UNL1		-0.6011
15		C		1.7821		-0.1909		0.1926		C.ar		1		UNL1		0.7931
16		N		2.5526		-1.3250		0.1735		N.pl3		1		UNL1		-0.4707
17		C		1.9817		-2.5683		0.6923		C.3		1		UNL1		-0.3334
18		C		3.9609		-1.4006		-0.2701		C.3		1		UNL1		0.0101
19		C		4.9302		-0.5870		0.6076		C.3		1		UNL1		-0.4542
20		C		4.1476		-1.1598		-1.7798		C.3		1		UNL1		-0.4542
21		N		2.2949		0.9834		-0.2849		N.ar		1		UNL1		-0.7101
22		C		1.5764		2.1991		-0.3271		C.ar		1		UNL1		0.5658
23		O		2.1454		3.1881		-0.7842		O.2		1		UNL1		-0.5445
24		H		-0.7878		3.8368		1.0874		H		1		UNL1		0.1512
25		H		0.0376		4.1424		-0.4425		H		1		UNL1		0.1864
26		H		-1.5126		3.2822		-0.4286		H		1		UNL1		0.1650
27		H		-1.3273		-0.1082		2.0922		H		1		UNL1		0.1737
28		H		-1.8197		2.2753		2.5974		H		1		UNL1		0.1523
29		H		-2.8490		2.3781		1.1576		H		1		UNL1		0.1687
30		H		-3.2541		1.2506		2.4546		H		1		UNL1		0.1468
31		H		-4.2515		-0.1176		-2.5693		H		1		UNL1		0.1476
32		H		-4.3884		-2.5969		-2.1779		H		1		UNL1		0.1435
33		H		-3.2105		-3.5865		-0.1909		H		1		UNL1		0.1447
34		H		2.0395		-3.3551		-0.0701		H		1		UNL1		0.1520
35		H		0.9407		-2.3994		0.9597		H		1		UNL1		0.2243
36		H		2.5317		-2.9035		1.5817		H		1		UNL1		0.1523
37		H		4.2187		-2.4511		-0.1036		H		1		UNL1		0.1555
38		H		4.7811		-0.8279		1.6650		H		1		UNL1		0.1643
39		H		5.9633		-0.8370		0.3418		H		1		UNL1		0.1559
40		H		4.8188		0.4959		0.4958		H		1		UNL1		0.1574
41		H		5.1693		-1.4288		-2.0696		H		1		UNL1		0.1561
42		H		3.4532		-1.7816		-2.3538		H		1		UNL1		0.1652
43		H		3.9890		-0.1202		-2.0836		H		1		UNL1		0.1567
44		H		3.2311		1.0581		-0.6557		H		1		UNL1		0.3361
@<TRIPOS>BOND
1		31		9		1
2		42		20		1
3		32		10		1
4		43		20		1
5		41		20		1
6		20		18		1
7		9		10		ar
8		9		7		ar
9		10		11		ar
10		8		7		1
11		7		6		ar
12		23		22		2
13		44		21		1
14		25		1		1
15		26		1		1
16		11		33		1
17		11		12		ar
18		22		21		ar
19		22		2		ar
20		21		15		ar
21		18		37		1
22		18		16		1
23		18		19		1
24		34		17		1
25		1		2		1
26		1		24		1
27		16		15		1
28		16		17		1
29		2		3		ar
30		15		14		ar
31		6		12		ar
32		6		4		1
33		39		19		1
34		12		13		1
35		40		19		1
36		19		38		1
37		3		14		ar
38		3		4		1
39		17		35		1
40		17		36		1
41		29		5		1
42		4		5		1
43		4		27		1
44		5		30		1
45		5		28		1

