@<TRIPOS>MOLECULE
YSQ-2012-CMC-152-8
 53 55 0 0 0
SMALL
MULLIKEN_CHARGES
****
Gaussian 16 #p B3LYP/6-31G* opt
@<TRIPOS>ATOM
1		C		9.6442		-1.0520		1.3311		C.3		1		UNL1		-0.2238
2		O		8.9738		0.1469		0.9568		O.3		1		UNL1		-0.4941
3		C		7.6989		0.0696		0.5085		C.ar		1		UNL1		0.3923
4		C		7.0997		1.2965		0.1637		C.ar		1		UNL1		-0.1709
5		C		5.8005		1.3246		-0.3023		C.ar		1		UNL1		-0.1568
6		C		5.0541		0.1351		-0.4508		C.ar		1		UNL1		0.0837
7		C		3.6684		0.2437		-0.9512		C.2		1		UNL1		0.4270
8		O		3.1549		1.3414		-1.1715		O.2		1		UNL1		-0.4772
9		C		2.8239		-1.0040		-1.1958		C.3		1		UNL1		-0.5657
10		S		1.7358		-1.4273		0.2348		S.3		1		UNL1		0.1978
11		C		0.3045		-0.3751		0.0120		C.ar		1		UNL1		0.3203
12		N		-0.7752		-0.7991		0.5914		N.ar		1		UNL1		-0.5084
13		C		-1.9066		-0.0104		0.5095		C.ar		1		UNL1		0.2207
14		C		-3.0704		-0.6161		1.2975		C.3		1		UNL1		-0.4428
15		C		-4.3943		-0.8463		0.5881		C.ar		1		UNL1		0.1973
16		C		-5.6125		-0.3196		1.0612		C.ar		1		UNL1		-0.1433
17		CL		-5.6557		0.6928		2.5085		Cl		1		UNL1		-0.0136
18		C		-6.8379		-0.5562		0.4395		C.ar		1		UNL1		-0.1177
19		C		-6.8840		-1.3567		-0.6974		C.ar		1		UNL1		-0.1258
20		C		-5.7139		-1.9248		-1.1922		C.ar		1		UNL1		-0.1203
21		C		-4.5044		-1.6735		-0.5467		C.ar		1		UNL1		-0.1351
22		CL		-3.0776		-2.4756		-1.1887		Cl		1		UNL1		0.0022
23		C		-1.9460		1.1932		-0.1593		C.ar		1		UNL1		0.0677
24		C		-3.1568		2.1113		-0.2062		C.3		1		UNL1		-0.1500
25		C		-2.8615		3.4812		0.4406		C.3		1		UNL1		-0.4530
26		C		-3.7055		2.2754		-1.6381		C.3		1		UNL1		-0.4545
27		C		-0.7356		1.6427		-0.8454		C.ar		1		UNL1		0.5751
28		O		-0.5953		2.6680		-1.5048		O.2		1		UNL1		-0.5243
29		N		0.3771		0.7807		-0.6892		N.ar		1		UNL1		-0.6628
30		C		5.6645		-1.0796		-0.1035		C.ar		1		UNL1		-0.1846
31		C		6.9716		-1.1224		0.3754		C.ar		1		UNL1		-0.1995
32		H		9.1297		-1.5550		2.1590		H		1		UNL1		0.1626
33		H		10.6395		-0.7450		1.6552		H		1		UNL1		0.1816
34		H		9.7332		-1.7410		0.4822		H		1		UNL1		0.1610
35		H		7.6816		2.2054		0.2774		H		1		UNL1		0.1550
36		H		5.3273		2.2647		-0.5648		H		1		UNL1		0.1764
37		H		2.2017		-0.8369		-2.0786		H		1		UNL1		0.2193
38		H		3.4178		-1.9027		-1.3690		H		1		UNL1		0.2004
39		H		-2.7013		-1.5800		1.6620		H		1		UNL1		0.1991
40		H		-3.2510		0.0030		2.1798		H		1		UNL1		0.1920
41		H		-7.7392		-0.1150		0.8498		H		1		UNL1		0.1598
42		H		-7.8322		-1.5449		-1.1920		H		1		UNL1		0.1487
43		H		-5.7286		-2.5665		-2.0661		H		1		UNL1		0.1594
44		H		-3.9441		1.6471		0.3914		H		1		UNL1		0.1368
45		H		-3.7743		4.0887		0.4559		H		1		UNL1		0.1358
46		H		-2.5199		3.3629		1.4757		H		1		UNL1		0.1344
47		H		-2.0937		4.0205		-0.1187		H		1		UNL1		0.1824
48		H		-3.9794		1.3056		-2.0689		H		1		UNL1		0.1387
49		H		-2.9612		2.7457		-2.2854		H		1		UNL1		0.1804
50		H		-4.6033		2.9052		-1.6257		H		1		UNL1		0.1340
51		H		1.2693		1.1360		-1.0545		H		1		UNL1		0.3956
52		H		5.1236		-2.0166		-0.1868		H		1		UNL1		0.1424
53		H		7.4104		-2.0769		0.6405		H		1		UNL1		0.1444
@<TRIPOS>BOND
1		49		26		1
2		37		9		1
3		48		26		1
4		43		20		1
5		26		50		1
6		26		24		1
7		28		27		2
8		38		9		1
9		9		7		1
10		9		10		1
11		20		19		ar
12		20		21		ar
13		42		19		1
14		22		21		1
15		8		7		2
16		51		29		1
17		7		6		1
18		27		29		ar
19		27		23		ar
20		19		18		ar
21		29		11		ar
22		36		5		1
23		21		15		ar
24		6		5		ar
25		6		30		ar
26		5		4		ar
27		24		23		1
28		24		44		1
29		24		25		1
30		52		30		1
31		23		13		ar
32		47		25		1
33		30		31		ar
34		11		10		1
35		11		12		ar
36		4		35		1
37		4		3		ar
38		31		3		ar
39		31		53		1
40		18		41		1
41		18		16		ar
42		25		45		1
43		25		46		1
44		34		1		1
45		3		2		1
46		13		12		ar
47		13		14		1
48		15		16		ar
49		15		14		1
50		2		1		1
51		16		17		1
52		14		39		1
53		14		40		1
54		1		33		1
55		1		32		1

