@<TRIPOS>MOLECULE
YSQ-2012-CMC-152-5
 45 47 0 0 0
SMALL
MULLIKEN_CHARGES
****
Gaussian 16 #p B3LYP/6-31G* opt
@<TRIPOS>ATOM
1		C		7.6948		-1.3546		0.0420		C.3		1		UNL1		-0.2150
2		O		6.5003		-1.4620		-0.7149		O.3		1		UNL1		-0.5061
3		C		5.5043		-0.5574		-0.4816		C.ar		1		UNL1		0.3747
4		C		4.3482		-0.7087		-1.2608		C.ar		1		UNL1		-0.1720
5		C		3.2791		0.1635		-1.0986		C.ar		1		UNL1		-0.1841
6		C		3.3236		1.2094		-0.1630		C.ar		1		UNL1		0.1617
7		C		2.1455		2.1418		0.0305		C.3		1		UNL1		-0.3429
8		C		1.2745		1.7217		1.2268		C.3		1		UNL1		-0.4312
9		S		-0.1022		2.8976		1.5650		S.3		1		UNL1		0.1363
10		C		-1.3589		2.2979		0.4554		C.ar		1		UNL1		0.3358
11		N		-1.3327		1.0951		-0.0390		N.ar		1		UNL1		-0.5076
12		C		-2.3768		0.7305		-0.8643		C.ar		1		UNL1		0.3278
13		C		-2.2950		-0.6825		-1.4171		C.3		1		UNL1		-0.4362
14		C		-2.3618		-1.7564		-0.3457		C.ar		1		UNL1		0.1903
15		C		-3.5877		-2.1783		0.2025		C.ar		1		UNL1		-0.1266
16		CL		-5.0999		-1.4788		-0.3713		Cl		1		UNL1		-0.0068
17		C		-3.6825		-3.1563		1.1904		C.ar		1		UNL1		-0.1208
18		C		-2.5207		-3.7581		1.6651		C.ar		1		UNL1		-0.1238
19		C		-1.2839		-3.3881		1.1459		C.ar		1		UNL1		-0.1239
20		C		-1.2199		-2.4058		0.1580		C.ar		1		UNL1		-0.1272
21		CL		0.3831		-2.0201		-0.4620		Cl		1		UNL1		-0.0057
22		C		-3.4129		1.5644		-1.1767		C.ar		1		UNL1		-0.2575
23		C		-3.4702		2.9077		-0.6414		C.ar		1		UNL1		0.6122
24		O		-4.3198		3.7641		-0.8336		O.2		1		UNL1		-0.5202
25		N		-2.3562		3.1894		0.1955		N.ar		1		UNL1		-0.6456
26		C		4.4859		1.3480		0.6008		C.ar		1		UNL1		-0.1909
27		C		5.5720		0.4808		0.4546		C.ar		1		UNL1		-0.1928
28		H		8.3405		-2.1653		-0.3005		H		1		UNL1		0.1708
29		H		8.1980		-0.3937		-0.1303		H		1		UNL1		0.1521
30		H		7.5045		-1.4729		1.1172		H		1		UNL1		0.1515
31		H		4.3148		-1.5134		-1.9888		H		1		UNL1		0.1405
32		H		2.3922		0.0362		-1.7147		H		1		UNL1		0.1369
33		H		2.4964		3.1688		0.1876		H		1		UNL1		0.1568
34		H		1.5213		2.1514		-0.8697		H		1		UNL1		0.1606
35		H		0.8267		0.7377		1.0741		H		1		UNL1		0.2358
36		H		1.8553		1.7032		2.1539		H		1		UNL1		0.1810
37		H		-1.3506		-0.7804		-1.9592		H		1		UNL1		0.1898
38		H		-3.1064		-0.8327		-2.1336		H		1		UNL1		0.1814
39		H		-4.6568		-3.4376		1.5738		H		1		UNL1		0.1615
40		H		-2.5800		-4.5210		2.4355		H		1		UNL1		0.1500
41		H		-0.3694		-3.8536		1.4958		H		1		UNL1		0.1609
42		H		-4.2255		1.2536		-1.8212		H		1		UNL1		0.1583
43		H		-2.3238		4.1312		0.5730		H		1		UNL1		0.3554
44		H		4.5579		2.1563		1.3262		H		1		UNL1		0.1234
45		H		6.4566		0.6281		1.0637		H		1		UNL1		0.1317
@<TRIPOS>BOND
1		38		13		1
2		31		4		1
3		37		13		1
4		42		22		1
5		32		5		1
6		13		12		1
7		13		14		1
8		4		5		ar
9		4		3		ar
10		22		12		ar
11		22		23		ar
12		5		6		ar
13		34		7		1
14		12		11		ar
15		24		23		2
16		2		3		1
17		2		1		1
18		23		25		ar
19		3		27		ar
20		21		20		1
21		16		15		1
22		14		20		ar
23		14		15		ar
24		28		1		1
25		6		7		1
26		6		26		ar
27		29		1		1
28		11		10		ar
29		7		33		1
30		7		8		1
31		1		30		1
32		20		19		ar
33		25		10		ar
34		25		43		1
35		15		17		ar
36		27		26		ar
37		27		45		1
38		10		9		1
39		26		44		1
40		35		8		1
41		19		41		1
42		19		18		ar
43		17		39		1
44		17		18		ar
45		8		9		1
46		8		36		1
47		18		40		1

