@<TRIPOS>MOLECULE
YSQ-2012-CMC-152-19
 38 39 0 0 0
SMALL
MULLIKEN_CHARGES
****
Gaussian 16 #p B3LYP/6-31G* opt
@<TRIPOS>ATOM
1		C		0.0493		3.6856		0.5288		C.3		1		UNL1		-0.5569
2		C		0.6727		2.3556		0.1834		C.ar		1		UNL1		0.0502
3		C		0.1416		1.1233		0.4652		C.ar		1		UNL1		0.2599
4		C		-1.2217		0.9686		1.1536		C.3		1		UNL1		-0.3108
5		C		-1.0459		0.2377		2.4184		C.1		1		UNL1		0.3889
6		N		-0.9005		-0.3348		3.4177		N.1		1		UNL1		-0.4947
7		C		-2.2542		0.3093		0.2286		C.ar		1		UNL1		0.1674
8		C		-2.6884		-1.0068		0.4074		C.ar		1		UNL1		-0.1746
9		C		-3.6216		-1.5649		-0.4697		C.ar		1		UNL1		-0.1376
10		C		-4.1263		-0.8155		-1.5319		C.ar		1		UNL1		-0.1225
11		C		-3.6952		0.5004		-1.7141		C.ar		1		UNL1		-0.1324
12		C		-2.7660		1.0589		-0.8382		C.ar		1		UNL1		-0.1679
13		N		0.7377		-0.0803		0.1702		N.ar		1		UNL1		-0.5103
14		C		1.8976		-0.0495		-0.4168		C.ar		1		UNL1		0.3385
15		S		2.8302		-1.4925		-0.8527		S.3		1		UNL1		0.1334
16		C		1.8901		-2.9458		-0.1567		C.3		1		UNL1		-0.2388
17		C		0.5506		-3.1748		-0.8602		C.3		1		UNL1		-0.4515
18		C		1.7951		-2.9174		1.3705		C.3		1		UNL1		-0.4529
19		N		2.5064		1.1247		-0.7579		N.ar		1		UNL1		-0.6514
20		C		1.9640		2.4013		-0.5005		C.ar		1		UNL1		0.5829
21		O		2.5815		3.4018		-0.8409		O.2		1		UNL1		-0.5193
22		H		-0.1451		3.7824		1.6034		H		1		UNL1		0.1698
23		H		0.7365		4.4816		0.2352		H		1		UNL1		0.2050
24		H		-0.8984		3.8522		0.0020		H		1		UNL1		0.1650
25		H		-1.5905		1.9649		1.4173		H		1		UNL1		0.1999
26		H		-2.3078		-1.5931		1.2380		H		1		UNL1		0.1589
27		H		-3.9546		-2.5878		-0.3164		H		1		UNL1		0.1384
28		H		-4.8535		-1.2508		-2.2118		H		1		UNL1		0.1358
29		H		-4.0852		1.0948		-2.5358		H		1		UNL1		0.1375
30		H		-2.4350		2.0839		-0.9873		H		1		UNL1		0.1360
31		H		2.5854		-3.7426		-0.4521		H		1		UNL1		0.1761
32		H		-0.1527		-2.3701		-0.6381		H		1		UNL1		0.1989
33		H		0.1197		-4.1198		-0.5058		H		1		UNL1		0.1493
34		H		0.6776		-3.2442		-1.9449		H		1		UNL1		0.1565
35		H		1.3721		-3.8686		1.7171		H		1		UNL1		0.1525
36		H		1.1457		-2.1103		1.7155		H		1		UNL1		0.2031
37		H		2.7816		-2.7980		1.8284		H		1		UNL1		0.1586
38		H		3.4154		1.1293		-1.2101		H		1		UNL1		0.3590
@<TRIPOS>BOND
1		29		11		1
2		28		10		1
3		34		17		1
4		11		10		ar
5		11		12		ar
6		10		9		ar
7		38		19		1
8		30		12		1
9		17		32		1
10		17		33		1
11		17		16		1
12		15		14		1
13		15		16		1
14		21		20		2
15		12		7		ar
16		19		20		ar
17		19		14		ar
18		20		2		ar
19		9		27		1
20		9		8		ar
21		31		16		1
22		14		13		ar
23		16		18		1
24		24		1		1
25		13		3		ar
26		2		3		ar
27		2		1		1
28		7		8		ar
29		7		4		1
30		23		1		1
31		8		26		1
32		3		4		1
33		1		22		1
34		4		25		1
35		4		5		1
36		18		36		1
37		18		35		1
38		18		37		1
39		5		6		3

