@<TRIPOS>MOLECULE
YSQ-2012-CMC-152-12
 55 58 0 0 0
SMALL
MULLIKEN_CHARGES
****
Gaussian 16 #p B3LYP/6-31G* opt
@<TRIPOS>ATOM
1		C		8.7252		-1.6642		-1.5182		C.3		1		UNL1		-0.2163
2		O		8.0349		-0.4246		-1.5170		O.3		1		UNL1		-0.5054
3		C		7.0059		-0.2584		-0.6366		C.ar		1		UNL1		0.3772
4		C		6.5724		-1.2264		0.2777		C.ar		1		UNL1		-0.1945
5		C		5.5026		-0.9395		1.1281		C.ar		1		UNL1		-0.1916
6		C		4.8431		0.2953		1.0966		C.ar		1		UNL1		0.1579
7		C		3.7139		0.5587		2.0482		C.3		1		UNL1		-0.2169
8		C		2.6089		1.5370		1.7437		C.3		1		UNL1		-0.3550
9		C		2.3017		0.0489		1.7799		C.3		1		UNL1		-0.1129
10		C		2.0134		-0.7402		0.5136		C.3		1		UNL1		-0.4696
11		S		0.3126		-1.4422		0.3531		S.3		1		UNL1		0.1843
12		C		-0.7278		-0.0528		-0.0380		C.ar		1		UNL1		0.3146
13		N		-1.8917		-0.3248		-0.5442		N.ar		1		UNL1		-0.5082
14		C		-2.7343		0.7294		-0.8218		C.ar		1		UNL1		0.2451
15		C		-4.0788		0.3020		-1.4064		C.3		1		UNL1		-0.2147
16		C		-3.8880		-0.3341		-2.8000		C.3		1		UNL1		-0.4558
17		C		-4.8458		-0.5621		-0.4093		C.ar		1		UNL1		0.0007
18		C		-5.7524		0.0364		0.4744		C.ar		1		UNL1		0.3363
19		F		-5.9315		1.3793		0.3945		F		1		UNL1		-0.2954
20		C		-6.4908		-0.6526		1.4275		C.ar		1		UNL1		-0.1936
21		C		-6.3203		-2.0328		1.5256		C.ar		1		UNL1		-0.1330
22		C		-5.4303		-2.6884		0.6775		C.ar		1		UNL1		-0.1964
23		C		-4.7161		-1.9482		-0.2601		C.ar		1		UNL1		0.3515
24		F		-3.8766		-2.6279		-1.0664		F		1		UNL1		-0.2853
25		C		-2.4024		2.0506		-0.6263		C.ar		1		UNL1		0.0480
26		C		-3.3015		3.2238		-0.9291		C.3		1		UNL1		-0.5519
27		C		-1.0944		2.3619		-0.0646		C.ar		1		UNL1		0.5665
28		O		-0.6356		3.4709		0.1906		O.2		1		UNL1		-0.5348
29		N		-0.3124		1.2167		0.2128		N.ar		1		UNL1		-0.6623
30		C		5.3013		1.2541		0.1796		C.ar		1		UNL1		-0.1923
31		C		6.3622		0.9863		-0.6771		C.ar		1		UNL1		-0.1726
32		H		9.2028		-1.8617		-0.5493		H		1		UNL1		0.1530
33		H		8.0566		-2.4989		-1.7672		H		1		UNL1		0.1528
34		H		9.4945		-1.5773		-2.2876		H		1		UNL1		0.1727
35		H		7.0535		-2.1961		0.3363		H		1		UNL1		0.1344
36		H		5.1794		-1.6982		1.8378		H		1		UNL1		0.1281
37		H		4.0007		0.5047		3.0981		H		1		UNL1		0.1641
38		H		2.6333		2.0278		0.7725		H		1		UNL1		0.1733
39		H		2.2368		2.1703		2.5442		H		1		UNL1		0.1772
40		H		1.7654		-0.3110		2.6551		H		1		UNL1		0.1694
41		H		2.2577		-0.1745		-0.3907		H		1		UNL1		0.1944
42		H		2.6290		-1.6466		0.4851		H		1		UNL1		0.1991
43		H		-4.6792		1.2021		-1.5427		H		1		UNL1		0.1589
44		H		-3.1807		-1.1625		-2.7681		H		1		UNL1		0.1873
45		H		-4.8440		-0.7023		-3.1877		H		1		UNL1		0.1479
46		H		-3.5076		0.4229		-3.4947		H		1		UNL1		0.1438
47		H		-7.1744		-0.1060		2.0676		H		1		UNL1		0.1467
48		H		-6.8826		-2.5977		2.2629		H		1		UNL1		0.1434
49		H		-5.2731		-3.7604		0.7255		H		1		UNL1		0.1466
50		H		-3.5146		3.3114		-2.0019		H		1		UNL1		0.1577
51		H		-4.2597		3.1420		-0.4058		H		1		UNL1		0.1730
52		H		-2.8063		4.1429		-0.6091		H		1		UNL1		0.1915
53		H		0.5686		1.3993		0.6817		H		1		UNL1		0.3827
54		H		4.8281		2.2314		0.1418		H		1		UNL1		0.1352
55		H		6.7155		1.7301		-1.3845		H		1		UNL1		0.1428
@<TRIPOS>BOND
1		46		16		1
2		45		16		1
3		16		44		1
4		16		15		1
5		34		1		1
6		50		26		1
7		33		1		1
8		43		15		1
9		1		2		1
10		1		32		1
11		2		3		1
12		15		14		1
13		15		17		1
14		55		31		1
15		24		23		1
16		26		25		1
17		26		52		1
18		26		51		1
19		14		25		ar
20		14		13		ar
21		31		3		ar
22		31		30		ar
23		3		4		ar
24		25		27		ar
25		13		12		ar
26		17		23		ar
27		17		18		ar
28		41		10		1
29		23		22		ar
30		27		28		2
31		27		29		ar
32		12		29		ar
33		12		11		1
34		54		30		1
35		30		6		ar
36		29		53		1
37		4		35		1
38		4		5		ar
39		11		10		1
40		19		18		1
41		18		20		ar
42		42		10		1
43		10		9		1
44		22		49		1
45		22		21		ar
46		38		8		1
47		6		5		ar
48		6		7		1
49		5		36		1
50		20		21		ar
51		20		47		1
52		21		48		1
53		8		9		1
54		8		7		1
55		8		39		1
56		9		7		1
57		9		40		1
58		7		37		1

