@<TRIPOS>MOLECULE
YSQ-2012-CMC-152-24
 57 60 0 0 0
SMALL
MULLIKEN_CHARGES
****
Gaussian 16 #p B3LYP/6-31G* opt
@<TRIPOS>ATOM
1		C		5.4334		-0.9602		0.7960		C.3		1		UNL1		-0.4470
2		C		4.6761		-1.3505		-0.4883		C.3		1		UNL1		-0.3320
3		C		3.1790		-1.4690		-0.3092		C.2		1		UNL1		0.1005
4		C		2.2291		-0.5961		-0.7370		C.2		1		UNL1		0.2268
5		C		2.5122		0.6888		-1.4868		C.3		1		UNL1		-0.3342
6		C		2.1670		2.0212		-0.7488		C.3		1		UNL1		-0.1596
7		C		2.8715		2.0841		0.6199		C.3		1		UNL1		-0.2791
8		C		2.3719		3.2423		1.4849		C.3		1		UNL1		-0.2686
9		C		0.8804		3.0493		1.7720		C.3		1		UNL1		-0.3403
10		C		0.0807		2.8741		0.4943		C.ar		1		UNL1		0.1060
11		C		-1.2715		3.2495		0.4765		C.ar		1		UNL1		-0.2007
12		C		-2.0419		3.1494		-0.6784		C.ar		1		UNL1		-0.1305
13		C		-1.4485		2.6788		-1.8517		C.ar		1		UNL1		-0.1363
14		C		-0.1085		2.3025		-1.8431		C.ar		1		UNL1		-0.1793
15		C		0.6753		2.3713		-0.6802		C.ar		1		UNL1		0.1522
16		N		0.8506		-0.8236		-0.5538		N.2		1		UNL1		-0.5175
17		C		0.5105		-1.7377		0.2902		C.2		1		UNL1		0.2968
18		S		-1.1990		-2.0861		0.6686		S.3		1		UNL1		0.1055
19		C		-2.0299		-0.6370		-0.1331		C.3		1		UNL1		-0.4926
20		C		-3.5232		-0.7798		0.0075		C.ar		1		UNL1		0.1444
21		C		-4.1995		-0.1781		1.0770		C.ar		1		UNL1		-0.1655
22		C		-5.5827		-0.3056		1.2079		C.ar		1		UNL1		-0.1296
23		C		-6.3097		-1.0410		0.2701		C.ar		1		UNL1		-0.1281
24		C		-5.6459		-1.6469		-0.7987		C.ar		1		UNL1		-0.1300
25		C		-4.2632		-1.5173		-0.9270		C.ar		1		UNL1		-0.1629
26		N		1.4127		-2.5158		0.9653		N.pl3		1		UNL1		-0.5864
27		C		2.7231		-2.7631		0.3418		C.3		1		UNL1		0.0477
28		N		2.7819		-3.8539		-0.6280		N.3		1		UNL1		-0.6853
29		H		5.2380		-1.6663		1.6119		H		1		UNL1		0.1409
30		H		5.1382		0.0355		1.1429		H		1		UNL1		0.1533
31		H		6.5156		-0.9540		0.6197		H		1		UNL1		0.1414
32		H		5.0503		-2.3212		-0.8391		H		1		UNL1		0.1627
33		H		4.9199		-0.6292		-1.2740		H		1		UNL1		0.1426
34		H		1.9594		0.6487		-2.4326		H		1		UNL1		0.1505
35		H		3.5719		0.7400		-1.7517		H		1		UNL1		0.1342
36		H		2.6186		2.8071		-1.3757		H		1		UNL1		0.1378
37		H		3.9548		2.1567		0.4576		H		1		UNL1		0.1290
38		H		2.7012		1.1446		1.1615		H		1		UNL1		0.1509
39		H		2.5297		4.1992		0.9675		H		1		UNL1		0.1345
40		H		2.9368		3.2902		2.4241		H		1		UNL1		0.1295
41		H		0.4791		3.8972		2.3411		H		1		UNL1		0.1387
42		H		0.7558		2.1640		2.4146		H		1		UNL1		0.1501
43		H		-1.7167		3.6422		1.3891		H		1		UNL1		0.1155
44		H		-3.0865		3.4493		-0.6688		H		1		UNL1		0.1251
45		H		-2.0256		2.6098		-2.7703		H		1		UNL1		0.1226
46		H		0.3397		1.9472		-2.7670		H		1		UNL1		0.1202
47		H		-1.7086		-0.6214		-1.1752		H		1		UNL1		0.2077
48		H		-1.6577		0.2700		0.3452		H		1		UNL1		0.2147
49		H		-3.6356		0.3987		1.8060		H		1		UNL1		0.1335
50		H		-6.0926		0.1715		2.0408		H		1		UNL1		0.1298
51		H		-7.3875		-1.1393		0.3698		H		1		UNL1		0.1293
52		H		-6.2055		-2.2184		-1.5346		H		1		UNL1		0.1301
53		H		-3.7489		-1.9897		-1.7607		H		1		UNL1		0.1324
54		H		1.0525		-3.2246		1.5933		H		1		UNL1		0.3244
55		H		3.4021		-3.0414		1.1560		H		1		UNL1		0.1473
56		H		2.1457		-3.6680		-1.4016		H		1		UNL1		0.3079
57		H		2.5084		-4.7413		-0.2065		H		1		UNL1		0.2887
@<TRIPOS>BOND
1		45		13		1
2		46		14		1
3		34		5		1
4		13		14		ar
5		13		12		ar
6		14		15		ar
7		53		25		1
8		35		5		1
9		52		24		1
10		5		6		1
11		5		4		1
12		56		28		1
13		36		6		1
14		33		2		1
15		47		19		1
16		25		24		ar
17		25		20		ar
18		32		2		1
19		24		23		ar
20		6		15		1
21		6		7		1
22		4		16		1
23		4		3		2
24		15		10		ar
25		12		44		1
26		12		11		ar
27		28		57		1
28		28		27		1
29		16		17		2
30		2		3		1
31		2		1		1
32		3		27		1
33		19		20		1
34		19		48		1
35		19		18		1
36		20		21		ar
37		23		51		1
38		23		22		ar
39		17		18		1
40		17		26		1
41		27		26		1
42		27		55		1
43		37		7		1
44		11		10		ar
45		11		43		1
46		10		9		1
47		31		1		1
48		7		38		1
49		7		8		1
50		1		30		1
51		1		29		1
52		26		54		1
53		39		8		1
54		21		22		ar
55		21		49		1
56		22		50		1
57		8		9		1
58		8		40		1
59		9		41		1
60		9		42		1

