@<TRIPOS>MOLECULE
YSQ-2012-CMC-152-17R
 42 44 0 0 0
SMALL
MULLIKEN_CHARGES
****
Gaussian 16 #p B3LYP/6-31G* opt
@<TRIPOS>ATOM
1		C		2.3845		3.4482		0.1825		C.3		1		UNL1		-0.5461
2		C		1.3291		2.3943		-0.0555		C.ar		1		UNL1		0.1059
3		C		0.0096		2.6822		0.3107		C.ar		1		UNL1		0.0170
4		N		-1.0299		1.8570		0.1805		N.ar		1		UNL1		-0.4722
5		C		-0.7324		0.6653		-0.3499		C.ar		1		UNL1		0.6874
6		N		-1.7162		-0.2879		-0.5366		N.pl3		1		UNL1		-0.7665
7		C		-3.0837		-0.2916		-0.2722		C.ar		1		UNL1		0.3842
8		C		-3.7912		-1.4666		-0.6023		C.ar		1		UNL1		-0.2062
9		C		-5.1535		-1.5662		-0.3766		C.ar		1		UNL1		-0.1408
10		C		-5.8574		-0.4881		0.1896		C.ar		1		UNL1		0.1298
11		C		-7.2650		-0.5838		0.4258		C.1		1		UNL1		0.2258
12		N		-8.4107		-0.6632		0.6177		N.1		1		UNL1		-0.4872
13		C		-5.1535		0.6823		0.5184		C.ar		1		UNL1		-0.1535
14		C		-3.7867		0.7887		0.2947		C.ar		1		UNL1		-0.1617
15		N		0.4832		0.2653		-0.7503		N.ar		1		UNL1		-0.5395
16		C		1.5153		1.1072		-0.6112		C.ar		1		UNL1		0.2735
17		C		2.8204		0.4769		-1.1254		C.3		1		UNL1		-0.2140
18		C		3.9715		1.4113		-1.5392		C.3		1		UNL1		-0.4617
19		C		3.2949		-0.6171		-0.1742		C.ar		1		UNL1		0.0174
20		C		3.7177		-0.3743		1.1347		C.ar		1		UNL1		0.3347
21		F		3.6921		0.9037		1.5876		F		1		UNL1		-0.2938
22		C		4.1613		-1.3626		2.0034		C.ar		1		UNL1		-0.1912
23		C		4.1901		-2.6818		1.5505		C.ar		1		UNL1		-0.1338
24		C		3.7820		-2.9889		0.2534		C.ar		1		UNL1		-0.1928
25		C		3.3465		-1.9573		-0.5707		C.ar		1		UNL1		0.3320
26		F		2.9628		-2.2711		-1.8279		F		1		UNL1		-0.2915
27		H		1.9334		4.3119		0.6822		H		1		UNL1		0.1572
28		H		3.1898		3.0795		0.8221		H		1		UNL1		0.1819
29		H		2.8358		3.8107		-0.7466		H		1		UNL1		0.1661
30		H		-0.2188		3.6557		0.7446		H		1		UNL1		0.1456
31		H		-1.3381		-1.1329		-0.9459		H		1		UNL1		0.3455
32		H		-3.2580		-2.3071		-1.0407		H		1		UNL1		0.1355
33		H		-5.6823		-2.4776		-0.6366		H		1		UNL1		0.1560
34		H		-5.6884		1.5195		0.9559		H		1		UNL1		0.1563
35		H		-3.2529		1.6926		0.5505		H		1		UNL1		0.1881
36		H		2.5011		-0.0489		-2.0285		H		1		UNL1		0.1817
37		H		3.6199		2.1839		-2.2311		H		1		UNL1		0.1541
38		H		4.7323		0.8211		-2.0606		H		1		UNL1		0.1585
39		H		4.4527		1.8958		-0.6883		H		1		UNL1		0.1650
40		H		4.4709		-1.0892		3.0061		H		1		UNL1		0.1518
41		H		4.5326		-3.4722		2.2111		H		1		UNL1		0.1497
42		H		3.7941		-4.0035		-0.1292		H		1		UNL1		0.1515
@<TRIPOS>BOND
1		37		18		1
2		38		18		1
3		36		17		1
4		26		25		1
5		18		17		1
6		18		39		1
7		17		16		1
8		17		19		1
9		32		8		1
10		31		6		1
11		15		16		ar
12		15		5		ar
13		29		1		1
14		33		9		1
15		16		2		ar
16		8		9		ar
17		8		7		ar
18		25		19		ar
19		25		24		ar
20		6		5		1
21		6		7		1
22		9		10		ar
23		5		4		ar
24		7		14		ar
25		19		20		ar
26		42		24		1
27		2		1		1
28		2		3		ar
29		4		3		ar
30		1		27		1
31		1		28		1
32		10		11		1
33		10		13		ar
34		24		23		ar
35		14		13		ar
36		14		35		1
37		3		30		1
38		11		12		3
39		13		34		1
40		20		21		1
41		20		22		ar
42		23		22		ar
43		23		41		1
44		22		40		1

