@<TRIPOS>MOLECULE
YZH-2014-BMC-2535-2-3e
 40 42 0 0 0
SMALL
MULLIKEN_CHARGES
****
Gaussian 16 #p B3LYP/6-31G* opt
@<TRIPOS>ATOM
1		C		2.7642		-2.3297		1.4312		C.3		1		UNL1		-0.4495
2		C		2.4997		-1.3707		0.2493		C.3		1		UNL1		0.1898
3		O		2.2051		-2.1490		-0.9012		O.3		1		UNL1		-0.6634
4		C		3.6975		-0.4718		-0.0818		C.ar		1		UNL1		0.1367
5		C		4.6617		-0.1126		0.8686		C.ar		1		UNL1		-0.1934
6		C		5.7209		0.7360		0.5386		C.ar		1		UNL1		-0.2035
7		C		5.8072		1.2220		-0.7586		C.ar		1		UNL1		0.3827
8		F		6.8286		2.0405		-1.0871		F		1		UNL1		-0.2967
9		C		4.8722		0.8821		-1.7304		C.ar		1		UNL1		-0.1975
10		C		3.8225		0.0355		-1.3836		C.ar		1		UNL1		-0.1617
11		C		1.2665		-0.5112		0.6031		C.ar		1		UNL1		0.3453
12		C		1.3025		0.5736		1.4880		C.ar		1		UNL1		-0.1934
13		C		0.0914		1.2035		1.7397		C.ar		1		UNL1		0.0698
14		N		-1.0685		0.8275		1.1855		N.ar		1		UNL1		-0.4779
15		C		-0.9974		-0.2159		0.3521		C.ar		1		UNL1		0.7065
16		N		-2.1265		-0.6870		-0.2792		N.pl3		1		UNL1		-0.7659
17		C		-3.4637		-0.2816		-0.2432		C.ar		1		UNL1		0.3815
18		C		-4.3660		-1.0172		-1.0376		C.ar		1		UNL1		-0.2060
19		C		-5.7125		-0.6946		-1.0702		C.ar		1		UNL1		-0.1398
20		C		-6.1995		0.3796		-0.3047		C.ar		1		UNL1		0.1324
21		C		-7.5895		0.7190		-0.3326		C.1		1		UNL1		0.2288
22		N		-8.7204		0.9939		-0.3560		N.1		1		UNL1		-0.4822
23		C		-5.3001		1.1124		0.4865		C.ar		1		UNL1		-0.1528
24		C		-3.9480		0.7937		0.5234		C.ar		1		UNL1		-0.1588
25		N		0.1241		-0.9033		0.0406		N.ar		1		UNL1		-0.6079
26		H		3.6361		-2.9500		1.2043		H		1		UNL1		0.1730
27		H		1.8954		-2.9836		1.5548		H		1		UNL1		0.1556
28		H		2.9319		-1.8068		2.3780		H		1		UNL1		0.1423
29		H		1.2288		-2.1698		-0.9564		H		1		UNL1		0.4067
30		H		4.6085		-0.4996		1.8811		H		1		UNL1		0.1349
31		H		6.4747		1.0131		1.2683		H		1		UNL1		0.1477
32		H		4.9782		1.2738		-2.7369		H		1		UNL1		0.1494
33		H		3.0957		-0.2605		-2.1313		H		1		UNL1		0.1552
34		H		2.2262		0.9173		1.9366		H		1		UNL1		0.1579
35		H		0.0368		2.0563		2.4139		H		1		UNL1		0.1604
36		H		-1.9233		-1.4770		-0.8779		H		1		UNL1		0.3445
37		H		-4.0010		-1.8503		-1.6340		H		1		UNL1		0.1382
38		H		-6.3948		-1.2704		-1.6868		H		1		UNL1		0.1603
39		H		-5.6680		1.9433		1.0802		H		1		UNL1		0.1603
40		H		-3.2626		1.3625		1.1346		H		1		UNL1		0.1905
@<TRIPOS>BOND
1		32		9		1
2		33		10		1
3		9		10		ar
4		9		7		ar
5		38		19		1
6		37		18		1
7		10		4		ar
8		8		7		1
9		19		18		ar
10		19		20		ar
11		18		17		ar
12		29		3		1
13		3		2		1
14		36		16		1
15		7		6		ar
16		22		21		3
17		21		20		1
18		20		23		ar
19		16		17		1
20		16		15		1
21		17		24		ar
22		4		2		1
23		4		5		ar
24		25		15		ar
25		25		11		ar
26		2		11		1
27		2		1		1
28		15		14		ar
29		23		24		ar
30		23		39		1
31		24		40		1
32		6		5		ar
33		6		31		1
34		11		12		ar
35		5		30		1
36		14		13		ar
37		26		1		1
38		1		27		1
39		1		28		1
40		12		13		ar
41		12		34		1
42		13		35		1

