@<TRIPOS>MOLECULE
YZH-2014-BMC-2535-2-3b
 52 54 0 0 0
SMALL
MULLIKEN_CHARGES
****
Gaussian 16 #p B3LYP/6-31G* opt
@<TRIPOS>ATOM
1		C		5.8432		-2.9334		0.2769		C.3		1		UNL1		-0.4389
2		C		6.2744		-1.4477		0.2444		C.3		1		UNL1		0.0161
3		C		7.0759		-1.1196		1.5267		C.3		1		UNL1		-0.4389
4		C		7.2035		-1.2444		-0.9673		C.3		1		UNL1		-0.4567
5		C		5.0237		-0.5533		0.1798		C.ar		1		UNL1		0.1853
6		C		4.0616		-0.6096		1.2043		C.ar		1		UNL1		-0.1903
7		C		2.9201		0.1836		1.1844		C.ar		1		UNL1		-0.1643
8		C		2.6818		1.0779		0.1314		C.ar		1		UNL1		0.1402
9		C		1.3913		1.9051		0.1320		C.3		1		UNL1		0.1892
10		C		1.5045		3.2150		-0.6791		C.3		1		UNL1		-0.4482
11		O		1.0809		2.2379		1.4775		O.3		1		UNL1		-0.6638
12		C		0.2300		1.0798		-0.4621		C.ar		1		UNL1		0.3446
13		C		0.3269		0.3485		-1.6530		C.ar		1		UNL1		-0.1917
14		C		-0.8280		-0.2927		-2.0780		C.ar		1		UNL1		0.0688
15		N		-1.9907		-0.2428		-1.4139		N.ar		1		UNL1		-0.4789
16		C		-1.9792		0.4771		-0.2874		C.ar		1		UNL1		0.7057
17		N		-3.1164		0.5946		0.4812		N.pl3		1		UNL1		-0.7661
18		C		-4.4074		0.0806		0.3364		C.ar		1		UNL1		0.3819
19		C		-5.3363		0.4174		1.3417		C.ar		1		UNL1		-0.2060
20		C		-6.6415		-0.0426		1.2885		C.ar		1		UNL1		-0.1400
21		C		-7.0597		-0.8579		0.2220		C.ar		1		UNL1		0.1320
22		C		-8.4066		-1.3370		0.1596		C.1		1		UNL1		0.2283
23		N		-9.5027		-1.7260		0.1101		N.1		1		UNL1		-0.4832
24		C		-6.1340		-1.1934		-0.7795		C.ar		1		UNL1		-0.1530
25		C		-4.8231		-0.7351		-0.7318		C.ar		1		UNL1		-0.1590
26		N		-0.9163		1.1441		0.2143		N.ar		1		UNL1		-0.6077
27		C		3.6326		1.1462		-0.8896		C.ar		1		UNL1		-0.1966
28		C		4.7794		0.3454		-0.8643		C.ar		1		UNL1		-0.2038
29		H		5.2809		-3.1984		-0.6259		H		1		UNL1		0.1456
30		H		5.2097		-3.1555		1.1420		H		1		UNL1		0.1440
31		H		6.7238		-3.5849		0.3325		H		1		UNL1		0.1397
32		H		7.4020		-0.0733		1.5281		H		1		UNL1		0.1486
33		H		6.4828		-1.2853		2.4321		H		1		UNL1		0.1445
34		H		7.9681		-1.7545		1.5915		H		1		UNL1		0.1391
35		H		7.5733		-0.2146		-1.0300		H		1		UNL1		0.1461
36		H		8.0751		-1.9026		-0.8785		H		1		UNL1		0.1425
37		H		6.7021		-1.4866		-1.9114		H		1		UNL1		0.1438
38		H		4.2060		-1.2849		2.0435		H		1		UNL1		0.1267
39		H		2.2077		0.1334		2.0006		H		1		UNL1		0.1434
40		H		1.6780		3.0435		-1.7461		H		1		UNL1		0.1421
41		H		0.5719		3.7779		-0.5725		H		1		UNL1		0.1528
42		H		2.3228		3.8183		-0.2757		H		1		UNL1		0.1718
43		H		0.1116		2.1350		1.5530		H		1		UNL1		0.4055
44		H		1.2574		0.2694		-2.2009		H		1		UNL1		0.1591
45		H		-0.8331		-0.8830		-2.9925		H		1		UNL1		0.1587
46		H		-2.9602		1.1660		1.3015		H		1		UNL1		0.3442
47		H		-5.0244		1.0474		2.1716		H		1		UNL1		0.1378
48		H		-7.3447		0.2254		2.0702		H		1		UNL1		0.1596
49		H		-6.4486		-1.8225		-1.6061		H		1		UNL1		0.1595
50		H		-4.1169		-0.9977		-1.5059		H		1		UNL1		0.1903
51		H		3.5032		1.8348		-1.7193		H		1		UNL1		0.1232
52		H		5.4879		0.4426		-1.6797		H		1		UNL1		0.1264
@<TRIPOS>BOND
1		45		14		1
2		44		13		1
3		14		13		ar
4		14		15		ar
5		37		4		1
6		40		10		1
7		51		27		1
8		52		28		1
9		13		12		ar
10		49		24		1
11		50		25		1
12		15		16		ar
13		35		4		1
14		4		36		1
15		4		2		1
16		27		28		ar
17		27		8		ar
18		28		5		ar
19		24		25		ar
20		24		21		ar
21		25		18		ar
22		10		41		1
23		10		42		1
24		10		9		1
25		29		1		1
26		12		9		1
27		12		26		ar
28		16		26		ar
29		16		17		1
30		23		22		3
31		8		9		1
32		8		7		ar
33		9		11		1
34		22		21		1
35		5		2		1
36		5		6		ar
37		21		20		ar
38		2		1		1
39		2		3		1
40		1		31		1
41		1		30		1
42		18		17		1
43		18		19		ar
44		17		46		1
45		7		6		ar
46		7		39		1
47		6		38		1
48		20		19		ar
49		20		48		1
50		19		47		1
51		11		43		1
52		3		32		1
53		3		34		1
54		3		33		1

