@<TRIPOS>MOLECULE
YZH-2014-BMC-3220-2-7o
 51 53 0 0 0
SMALL
MULLIKEN_CHARGES
****
Gaussian 16 #p B3LYP/6-31G* opt
@<TRIPOS>ATOM
1		C		0.4061		4.6210		1.0970		C.3		1		UNL1		-0.5506
2		C		-0.2815		3.3286		0.7395		C.ar		1		UNL1		0.1195
3		C		-1.6425		3.1424		0.9798		C.ar		1		UNL1		0.0225
4		N		-2.3223		2.0330		0.6762		N.ar		1		UNL1		-0.4720
5		C		-1.6047		1.0627		0.0985		C.ar		1		UNL1		0.6939
6		N		-2.1971		-0.1295		-0.2655		N.pl3		1		UNL1		-0.7672
7		C		-3.5055		-0.6001		-0.1614		C.ar		1		UNL1		0.3838
8		C		-4.5734		0.1348		0.3871		C.ar		1		UNL1		-0.1606
9		C		-5.8420		-0.4287		0.4436		C.ar		1		UNL1		-0.1531
10		C		-6.0854		-1.7256		-0.0377		C.ar		1		UNL1		0.1309
11		C		-7.3969		-2.2937		0.0277		C.1		1		UNL1		0.2269
12		N		-8.4635		-2.7575		0.0807		N.1		1		UNL1		-0.4853
13		C		-5.0171		-2.4580		-0.5857		C.ar		1		UNL1		-0.1403
14		C		-3.7504		-1.9020		-0.6450		C.ar		1		UNL1		-0.2055
15		N		-0.2894		1.1134		-0.1822		N.ar		1		UNL1		-0.5368
16		C		0.3628		2.2275		0.1343		C.ar		1		UNL1		0.3292
17		C		1.8492		2.2788		-0.1879		C.3		1		UNL1		-0.4151
18		CL		2.0104		3.0746		-1.8587		Cl		1		UNL1		-0.0742
19		C		2.5974		0.9737		-0.1228		C.ar		1		UNL1		0.2075
20		C		2.4179		-0.0578		-1.0491		C.ar		1		UNL1		-0.1384
21		C		3.1236		-1.2534		-0.9264		C.ar		1		UNL1		-0.2074
22		C		4.0300		-1.4728		0.1225		C.ar		1		UNL1		0.1863
23		C		4.8241		-2.7814		0.2843		C.3		1		UNL1		0.0143
24		C		4.4959		-3.8067		-0.8176		C.3		1		UNL1		-0.4577
25		C		6.3394		-2.4743		0.2211		C.3		1		UNL1		-0.4391
26		C		4.4875		-3.4204		1.6528		C.3		1		UNL1		-0.4390
27		C		4.2028		-0.4277		1.0436		C.ar		1		UNL1		-0.1868
28		C		3.5071		0.7726		0.9217		C.ar		1		UNL1		-0.1815
29		H		1.1715		4.4832		1.8717		H		1		UNL1		0.1669
30		H		-0.3191		5.3440		1.4835		H		1		UNL1		0.1666
31		H		0.8968		5.0723		0.2271		H		1		UNL1		0.1896
32		H		-2.2231		3.9374		1.4472		H		1		UNL1		0.1497
33		H		-1.5272		-0.7646		-0.6804		H		1		UNL1		0.3478
34		H		-4.3949		1.1328		0.7602		H		1		UNL1		0.1884
35		H		-6.6608		0.1438		0.8679		H		1		UNL1		0.1578
36		H		-5.1886		-3.4612		-0.9622		H		1		UNL1		0.1575
37		H		-2.9321		-2.4780		-1.0711		H		1		UNL1		0.1363
38		H		2.3291		2.9973		0.4764		H		1		UNL1		0.1988
39		H		1.7313		0.0795		-1.8769		H		1		UNL1		0.1477
40		H		2.9584		-2.0232		-1.6719		H		1		UNL1		0.1299
41		H		5.0810		-4.7191		-0.6574		H		1		UNL1		0.1441
42		H		3.4369		-4.0890		-0.8106		H		1		UNL1		0.1447
43		H		4.7433		-3.4277		-1.8156		H		1		UNL1		0.1480
44		H		6.9199		-3.3972		0.3402		H		1		UNL1		0.1412
45		H		6.6088		-2.0249		-0.7415		H		1		UNL1		0.1500
46		H		6.6490		-1.7822		1.0111		H		1		UNL1		0.1431
47		H		3.4196		-3.6562		1.7240		H		1		UNL1		0.1477
48		H		5.0510		-4.3518		1.7866		H		1		UNL1		0.1415
49		H		4.7393		-2.7567		2.4865		H		1		UNL1		0.1432
50		H		4.8990		-0.5413		1.8697		H		1		UNL1		0.1289
51		H		3.6760		1.5619		1.6514		H		1		UNL1		0.1261
@<TRIPOS>BOND
1		39		20		1
2		18		17		1
3		43		24		1
4		40		21		1
5		37		14		1
6		20		21		ar
7		20		19		ar
8		36		13		1
9		21		22		ar
10		24		42		1
11		24		41		1
12		24		23		1
13		45		25		1
14		33		6		1
15		14		13		ar
16		14		7		ar
17		13		10		ar
18		6		7		1
19		6		5		1
20		17		19		1
21		17		16		1
22		17		38		1
23		15		5		ar
24		15		16		ar
25		7		8		ar
26		19		28		ar
27		10		11		1
28		10		9		ar
29		11		12		3
30		5		4		ar
31		22		23		1
32		22		27		ar
33		16		2		ar
34		25		23		1
35		25		44		1
36		25		46		1
37		31		1		1
38		23		26		1
39		8		9		ar
40		8		34		1
41		9		35		1
42		4		3		ar
43		2		3		ar
44		2		1		1
45		28		27		ar
46		28		51		1
47		3		32		1
48		27		50		1
49		1		30		1
50		1		29		1
51		26		47		1
52		26		48		1
53		26		49		1

