@<TRIPOS>MOLECULE
YZH-2014-BMC-3220-2-7m
 39 41 0 0 0
SMALL
MULLIKEN_CHARGES
****
Gaussian 16 #p B3LYP/6-31G* opt
@<TRIPOS>ATOM
1		C		0.6998		3.8028		-1.7891		C.3		1		UNL1		-0.5156
2		C		0.2243		2.6430		-0.9567		C.ar		1		UNL1		0.3494
3		C		-1.1049		2.5179		-0.5460		C.ar		1		UNL1		-0.2399
4		C		-1.4363		1.3973		0.2222		C.ar		1		UNL1		0.3853
5		C		-2.8714		1.1916		0.6773		C.3		1		UNL1		-0.4051
6		CL		-2.9195		1.2310		2.5212		Cl		1		UNL1		-0.0624
7		C		-3.5433		-0.0476		0.1358		C.ar		1		UNL1		0.1839
8		C		-3.0650		-1.3377		0.4118		C.ar		1		UNL1		-0.1453
9		C		-3.7005		-2.4573		-0.1164		C.ar		1		UNL1		-0.2003
10		C		-4.8196		-2.2774		-0.9248		C.ar		1		UNL1		0.3864
11		F		-5.4356		-3.3613		-1.4367		F		1		UNL1		-0.2926
12		C		-5.3217		-1.0160		-1.2153		C.ar		1		UNL1		-0.1956
13		C		-4.6759		0.0963		-0.6750		C.ar		1		UNL1		-0.1782
14		N		-0.5299		0.4824		0.5570		N.ar		1		UNL1		-0.5356
15		C		0.7270		0.6979		0.1215		C.ar		1		UNL1		0.6964
16		N		1.6148		-0.2797		0.5176		N.pl3		1		UNL1		-0.7699
17		C		2.9816		-0.4599		0.2991		C.ar		1		UNL1		0.3828
18		C		3.7879		0.4070		-0.4615		C.ar		1		UNL1		-0.1591
19		C		5.1405		0.1315		-0.6188		C.ar		1		UNL1		-0.1532
20		C		5.7263		-1.0017		-0.0312		C.ar		1		UNL1		0.1317
21		C		7.1208		-1.2728		-0.2023		C.1		1		UNL1		0.2277
22		N		8.2552		-1.4941		-0.3415		N.1		1		UNL1		-0.4839
23		C		4.9189		-1.8665		0.7288		C.ar		1		UNL1		-0.1401
24		C		3.5700		-1.5973		0.8892		C.ar		1		UNL1		-0.2053
25		N		1.1477		1.7296		-0.6212		N.ar		1		UNL1		-0.5286
26		H		1.1308		3.4399		-2.7289		H		1		UNL1		0.1831
27		H		1.4915		4.3456		-1.2608		H		1		UNL1		0.1845
28		H		-0.1119		4.4981		-2.0184		H		1		UNL1		0.1606
29		H		-1.8465		3.2632		-0.8107		H		1		UNL1		0.1439
30		H		-3.4510		2.0669		0.3819		H		1		UNL1		0.1961
31		H		-2.1919		-1.4562		1.0424		H		1		UNL1		0.1674
32		H		-3.3462		-3.4620		0.0894		H		1		UNL1		0.1525
33		H		-6.1998		-0.9165		-1.8444		H		1		UNL1		0.1526
34		H		-5.0646		1.0888		-0.8892		H		1		UNL1		0.1389
35		H		1.1615		-0.9833		1.0866		H		1		UNL1		0.3477
36		H		3.3449		1.2812		-0.9154		H		1		UNL1		0.1849
37		H		5.7566		0.8045		-1.2068		H		1		UNL1		0.1578
38		H		5.3562		-2.7460		1.1899		H		1		UNL1		0.1591
39		H		2.9560		-2.2733		1.4797		H		1		UNL1		0.1380
@<TRIPOS>BOND
1		26		1		1
2		28		1		1
3		33		12		1
4		1		27		1
5		1		2		1
6		11		10		1
7		12		10		ar
8		12		13		ar
9		37		19		1
10		2		25		ar
11		2		3		ar
12		10		9		ar
13		36		18		1
14		34		13		1
15		29		3		1
16		13		7		ar
17		25		15		ar
18		19		18		ar
19		19		20		ar
20		3		4		ar
21		18		17		ar
22		22		21		3
23		21		20		1
24		9		32		1
25		9		8		ar
26		20		23		ar
27		15		16		1
28		15		14		ar
29		7		8		ar
30		7		5		1
31		4		14		ar
32		4		5		1
33		17		16		1
34		17		24		ar
35		30		5		1
36		8		31		1
37		16		35		1
38		5		6		1
39		23		24		ar
40		23		38		1
41		24		39		1

