@<TRIPOS>MOLECULE
YZH-2014-BMC-2535-2-3r
 55 57 0 0 0
SMALL
MULLIKEN_CHARGES
****
Gaussian 16 #p B3LYP/6-31G* opt
@<TRIPOS>ATOM
1		C		1.9709		3.5738		2.2488		C.3		1		UNL1		-0.5147
2		C		1.4064		2.6634		1.1916		C.ar		1		UNL1		0.3461
3		C		0.1210		2.8317		0.6781		C.ar		1		UNL1		-0.2394
4		C		-0.3096		1.9290		-0.3013		C.ar		1		UNL1		0.3190
5		C		-1.7037		2.0422		-0.9435		C.3		1		UNL1		0.2020
6		C		-1.5539		2.0876		-2.4744		C.3		1		UNL1		-0.4311
7		O		-2.2851		3.3041		-0.5866		O.3		1		UNL1		-0.6414
8		C		-2.6547		0.9023		-0.5270		C.ar		1		UNL1		0.0818
9		C		-2.2318		-0.3827		-0.1759		C.ar		1		UNL1		-0.1747
10		C		-3.1533		-1.3758		0.1666		C.ar		1		UNL1		-0.2027
11		C		-4.5329		-1.1367		0.1709		C.ar		1		UNL1		0.1868
12		C		-5.5728		-2.2073		0.5456		C.3		1		UNL1		0.0160
13		C		-6.5250		-2.4410		-0.6515		C.3		1		UNL1		-0.4391
14		C		-4.9211		-3.5546		0.9105		C.3		1		UNL1		-0.4570
15		C		-6.3933		-1.7228		1.7647		C.3		1		UNL1		-0.4391
16		C		-4.9485		0.1548		-0.1934		C.ar		1		UNL1		-0.1899
17		C		-4.0371		1.1495		-0.5348		C.ar		1		UNL1		-0.1926
18		N		0.4904		0.9535		-0.7394		N.ar		1		UNL1		-0.5627
19		C		1.7165		0.8775		-0.1828		C.ar		1		UNL1		0.6927
20		N		2.4787		-0.1560		-0.6940		N.pl3		1		UNL1		-0.7724
21		C		3.7742		-0.5947		-0.4249		C.ar		1		UNL1		0.3831
22		C		4.6298		-0.0120		0.5290		C.ar		1		UNL1		-0.1602
23		C		5.9045		-0.5297		0.7212		C.ar		1		UNL1		-0.1537
24		C		6.3638		-1.6306		-0.0205		C.ar		1		UNL1		0.1306
25		C		7.6789		-2.1535		0.1886		C.1		1		UNL1		0.2264
26		N		8.7489		-2.5801		0.3583		N.1		1		UNL1		-0.4860
27		C		5.5078		-2.2112		-0.9734		C.ar		1		UNL1		-0.1406
28		C		4.2361		-1.6999		-1.1697		C.ar		1		UNL1		-0.2063
29		N		2.2144		1.6780		0.7632		N.ar		1		UNL1		-0.5333
30		H		2.2482		2.9947		3.1369		H		1		UNL1		0.1789
31		H		1.2560		4.3475		2.5411		H		1		UNL1		0.1598
32		H		2.8840		4.0567		1.8829		H		1		UNL1		0.1804
33		H		-0.5086		3.6495		1.0003		H		1		UNL1		0.1404
34		H		-2.5433		2.1620		-2.9336		H		1		UNL1		0.1580
35		H		-0.9637		2.9638		-2.7626		H		1		UNL1		0.1561
36		H		-1.0521		1.1866		-2.8320		H		1		UNL1		0.1678
37		H		-2.6844		3.2023		0.2929		H		1		UNL1		0.3909
38		H		-1.1750		-0.6220		-0.1761		H		1		UNL1		0.1479
39		H		-2.7691		-2.3537		0.4359		H		1		UNL1		0.1278
40		H		-7.2775		-3.1976		-0.3979		H		1		UNL1		0.1401
41		H		-7.0556		-1.5263		-0.9358		H		1		UNL1		0.1433
42		H		-5.9717		-2.7929		-1.5297		H		1		UNL1		0.1481
43		H		-5.6986		-4.2821		1.1693		H		1		UNL1		0.1429
44		H		-4.3462		-3.9696		0.0749		H		1		UNL1		0.1460
45		H		-4.2531		-3.4644		1.7746		H		1		UNL1		0.1460
46		H		-7.1458		-2.4718		2.0401		H		1		UNL1		0.1404
47		H		-6.9184		-0.7847		1.5560		H		1		UNL1		0.1425
48		H		-5.7451		-1.5573		2.6329		H		1		UNL1		0.1470
49		H		-6.0077		0.3971		-0.2151		H		1		UNL1		0.1270
50		H		-4.4020		2.1315		-0.8204		H		1		UNL1		0.1418
51		H		1.9770		-0.6667		-1.4094		H		1		UNL1		0.3443
52		H		4.2833		0.8354		1.1023		H		1		UNL1		0.1855
53		H		6.5587		-0.0750		1.4586		H		1		UNL1		0.1566
54		H		5.8473		-3.0621		-1.5551		H		1		UNL1		0.1571
55		H		3.5835		-2.1576		-1.9097		H		1		UNL1		0.1358
@<TRIPOS>BOND
1		34		6		1
2		36		6		1
3		35		6		1
4		6		5		1
5		55		28		1
6		54		27		1
7		42		13		1
8		51		20		1
9		28		27		ar
10		28		21		ar
11		27		24		ar
12		5		7		1
13		5		8		1
14		5		4		1
15		41		13		1
16		50		17		1
17		18		4		ar
18		18		19		ar
19		20		21		1
20		20		19		1
21		13		40		1
22		13		12		1
23		7		37		1
24		17		8		ar
25		17		16		ar
26		8		9		ar
27		21		22		ar
28		4		3		ar
29		49		16		1
30		16		11		ar
31		19		29		ar
32		38		9		1
33		9		10		ar
34		24		25		1
35		24		23		ar
36		44		14		1
37		10		11		ar
38		10		39		1
39		11		12		1
40		25		26		3
41		22		23		ar
42		22		52		1
43		12		14		1
44		12		15		1
45		3		33		1
46		3		2		ar
47		23		53		1
48		29		2		ar
49		14		43		1
50		14		45		1
51		2		1		1
52		47		15		1
53		15		46		1
54		15		48		1
55		32		1		1
56		1		31		1
57		1		30		1

