@<TRIPOS>MOLECULE
YZH-2014-BMC-3220-2-7l
 51 53 0 0 0
SMALL
MULLIKEN_CHARGES
****
Gaussian 16 #p B3LYP/6-31G* opt
@<TRIPOS>ATOM
1		C		-1.6646		-3.2005		2.4823		C.3		1		UNL1		-0.5143
2		C		-1.2275		-2.4151		1.2754		C.ar		1		UNL1		0.3396
3		C		0.0215		-2.6050		0.6818		C.ar		1		UNL1		-0.2335
4		C		0.3201		-1.8198		-0.4353		C.ar		1		UNL1		0.3573
5		C		1.6471		-1.8433		-1.1789		C.3		1		UNL1		-0.3904
6		CL		2.4262		-3.5139		-1.0959		Cl		1		UNL1		-0.0762
7		C		2.6168		-0.7803		-0.7180		C.ar		1		UNL1		0.2060
8		C		3.2318		0.0479		-1.6583		C.ar		1		UNL1		-0.1785
9		C		4.1322		1.0393		-1.2630		C.ar		1		UNL1		-0.1953
10		C		4.4528		1.2383		0.0856		C.ar		1		UNL1		0.1855
11		C		5.4396		2.3185		0.5623		C.3		1		UNL1		0.0138
12		C		6.0231		3.1355		-0.6061		C.3		1		UNL1		-0.4584
13		C		6.6132		1.6463		1.3141		C.3		1		UNL1		-0.4398
14		C		4.7108		3.2944		1.5169		C.3		1		UNL1		-0.4396
15		C		3.8261		0.3959		1.0226		C.ar		1		UNL1		-0.1884
16		C		2.9276		-0.5911		0.6353		C.ar		1		UNL1		-0.1626
17		N		-0.5460		-0.9339		-0.9272		N.ar		1		UNL1		-0.5414
18		C		-1.7249		-0.8271		-0.2805		C.ar		1		UNL1		0.6925
19		N		-2.5680		0.1080		-0.8454		N.pl3		1		UNL1		-0.7698
20		C		-3.8552		0.5356		-0.5210		C.ar		1		UNL1		0.3831
21		C		-4.4142		1.5378		-1.3409		C.ar		1		UNL1		-0.2055
22		C		-5.6864		2.0285		-1.1002		C.ar		1		UNL1		-0.1405
23		C		-6.4446		1.5300		-0.0259		C.ar		1		UNL1		0.1311
24		C		-7.7597		2.0324		0.2297		C.1		1		UNL1		0.2270
25		N		-8.8295		2.4421		0.4371		N.1		1		UNL1		-0.4851
26		C		-5.8885		0.5316		0.7907		C.ar		1		UNL1		-0.1534
27		C		-4.6127		0.0351		0.5545		C.ar		1		UNL1		-0.1600
28		N		-2.1083		-1.5209		0.7959		N.ar		1		UNL1		-0.5295
29		H		-0.8892		-3.8943		2.8172		H		1		UNL1		0.1623
30		H		-2.5721		-3.7700		2.2522		H		1		UNL1		0.1822
31		H		-1.9124		-2.5208		3.3053		H		1		UNL1		0.1802
32		H		0.7198		-3.3417		1.0573		H		1		UNL1		0.1650
33		H		1.4281		-1.6977		-2.2366		H		1		UNL1		0.2099
34		H		3.0091		-0.0796		-2.7151		H		1		UNL1		0.1333
35		H		4.5837		1.6583		-2.0300		H		1		UNL1		0.1328
36		H		5.2427		3.6648		-1.1647		H		1		UNL1		0.1463
37		H		6.7180		3.8883		-0.2178		H		1		UNL1		0.1446
38		H		6.5796		2.5042		-1.3081		H		1		UNL1		0.1475
39		H		7.1533		0.9533		0.6591		H		1		UNL1		0.1504
40		H		7.3228		2.4049		1.6661		H		1		UNL1		0.1418
41		H		6.2698		1.0817		2.1872		H		1		UNL1		0.1440
42		H		4.3079		2.7814		2.3964		H		1		UNL1		0.1438
43		H		5.4032		4.0678		1.8706		H		1		UNL1		0.1421
44		H		3.8769		3.7916		1.0085		H		1		UNL1		0.1488
45		H		4.0416		0.5120		2.0809		H		1		UNL1		0.1312
46		H		2.4653		-1.2195		1.3914		H		1		UNL1		0.1359
47		H		-2.1403		0.5547		-1.6467		H		1		UNL1		0.3468
48		H		-3.8374		1.9313		-2.1747		H		1		UNL1		0.1368
49		H		-6.1016		2.7999		-1.7406		H		1		UNL1		0.1578
50		H		-6.4669		0.1410		1.6221		H		1		UNL1		0.1572
51		H		-4.1911		-0.7325		1.1868		H		1		UNL1		0.1854
@<TRIPOS>BOND
1		34		8		1
2		33		5		1
3		48		21		1
4		35		9		1
5		49		22		1
6		8		9		ar
7		8		7		ar
8		47		19		1
9		21		22		ar
10		21		20		ar
11		38		12		1
12		9		10		ar
13		5		6		1
14		5		7		1
15		5		4		1
16		36		12		1
17		22		23		ar
18		17		4		ar
19		17		18		ar
20		19		20		1
21		19		18		1
22		7		16		ar
23		12		37		1
24		12		11		1
25		20		27		ar
26		4		3		ar
27		18		28		ar
28		23		24		1
29		23		26		ar
30		10		11		1
31		10		15		ar
32		24		25		3
33		27		26		ar
34		27		51		1
35		11		13		1
36		11		14		1
37		16		15		ar
38		16		46		1
39		39		13		1
40		3		32		1
41		3		2		ar
42		26		50		1
43		28		2		ar
44		44		14		1
45		15		45		1
46		2		1		1
47		13		40		1
48		13		41		1
49		14		43		1
50		14		42		1
51		30		1		1
52		1		29		1
53		1		31		1

