@<TRIPOS>MOLECULE
YZH-2014-BMC-2535-2-3d
 43 45 0 0 0
SMALL
MULLIKEN_CHARGES
****
Gaussian 16 #p B3LYP/6-31G* opt
@<TRIPOS>ATOM
1		C		-5.7514		3.3997		-0.8389		C.3		1		UNL1		-0.5306
2		C		-4.9830		2.1656		-0.4274		C.ar		1		UNL1		0.1846
3		C		-3.7139		2.2686		0.1595		C.ar		1		UNL1		-0.1854
4		C		-2.9901		1.1346		0.5178		C.ar		1		UNL1		-0.1736
5		C		-3.5161		-0.1474		0.3046		C.ar		1		UNL1		0.1126
6		C		-2.7263		-1.3924		0.7312		C.3		1		UNL1		0.1968
7		C		-2.5639		-1.4392		2.2595		C.3		1		UNL1		-0.4528
8		O		-3.4793		-2.5307		0.2986		O.3		1		UNL1		-0.6513
9		C		-1.3635		-1.3970		0.0168		C.ar		1		UNL1		0.3110
10		C		-1.2120		-2.0149		-1.2335		C.ar		1		UNL1		-0.2006
11		C		0.0499		-1.9480		-1.8063		C.ar		1		UNL1		0.0724
12		N		1.0930		-1.3394		-1.2264		N.ar		1		UNL1		-0.4780
13		C		0.8400		-0.7817		-0.0367		C.ar		1		UNL1		0.6931
14		N		1.8402		-0.1275		0.6540		N.pl3		1		UNL1		-0.7661
15		C		3.1843		0.1094		0.3664		C.ar		1		UNL1		0.3830
16		C		3.9208		0.8266		1.3318		C.ar		1		UNL1		-0.2060
17		C		5.2618		1.1121		1.1383		C.ar		1		UNL1		-0.1404
18		C		5.9127		0.6871		-0.0336		C.ar		1		UNL1		0.1309
19		C		7.2982		0.9779		-0.2405		C.1		1		UNL1		0.2271
20		N		8.4258		1.2153		-0.4072		N.1		1		UNL1		-0.4852
21		C		5.1794		-0.0270		-0.9956		C.ar		1		UNL1		-0.1533
22		C		3.8337		-0.3166		-0.8074		C.ar		1		UNL1		-0.1600
23		N		-0.3424		-0.7833		0.6158		N.ar		1		UNL1		-0.5598
24		C		-4.7808		-0.2598		-0.2798		C.ar		1		UNL1		-0.1690
25		C		-5.4995		0.8830		-0.6364		C.ar		1		UNL1		-0.1861
26		H		-6.8153		3.1811		-0.9772		H		1		UNL1		0.1564
27		H		-5.3746		3.8067		-1.7867		H		1		UNL1		0.1660
28		H		-5.6645		4.1955		-0.0904		H		1		UNL1		0.1586
29		H		-3.2846		3.2524		0.3379		H		1		UNL1		0.1218
30		H		-2.0043		1.2461		0.9599		H		1		UNL1		0.1402
31		H		-2.0072		-2.3369		2.5592		H		1		UNL1		0.1333
32		H		-3.5555		-1.4645		2.7198		H		1		UNL1		0.1647
33		H		-2.0155		-0.5723		2.6313		H		1		UNL1		0.1707
34		H		-3.0559		-3.3162		0.6797		H		1		UNL1		0.3952
35		H		-2.0432		-2.5110		-1.7167		H		1		UNL1		0.1637
36		H		0.2478		-2.4009		-2.7764		H		1		UNL1		0.1548
37		H		1.5041		0.2382		1.5357		H		1		UNL1		0.3437
38		H		3.4284		1.1605		2.2423		H		1		UNL1		0.1356
39		H		5.8142		1.6649		1.8912		H		1		UNL1		0.1575
40		H		5.6738		-0.3586		-1.9033		H		1		UNL1		0.1580
41		H		3.2763		-0.8663		-1.5519		H		1		UNL1		0.1896
42		H		-5.2047		-1.2423		-0.4487		H		1		UNL1		0.1547
43		H		-6.4840		0.7707		-1.0857		H		1		UNL1		0.1223
@<TRIPOS>BOND
1		36		11		1
2		40		21		1
3		11		10		ar
4		11		12		ar
5		27		1		1
6		35		10		1
7		41		22		1
8		10		9		ar
9		12		13		ar
10		43		25		1
11		21		22		ar
12		21		18		ar
13		26		1		1
14		1		2		1
15		1		28		1
16		22		15		ar
17		25		2		ar
18		25		24		ar
19		42		24		1
20		2		3		ar
21		20		19		3
22		24		5		ar
23		19		18		1
24		13		23		ar
25		13		14		1
26		18		17		ar
27		9		23		ar
28		9		6		1
29		3		29		1
30		3		4		ar
31		8		34		1
32		8		6		1
33		5		4		ar
34		5		6		1
35		15		14		1
36		15		16		ar
37		4		30		1
38		14		37		1
39		6		7		1
40		17		16		ar
41		17		39		1
42		16		38		1
43		7		31		1
44		7		33		1
45		7		32		1

