@<TRIPOS>MOLECULE
YZH-2014-BMC-3220-2-7r
 36 38 0 0 0
SMALL
MULLIKEN_CHARGES
****
Gaussian 16 #p B3LYP/6-31G* opt
@<TRIPOS>ATOM
1		N		-6.9836		2.2196		1.1244		N.1		1		UNL1		-0.4840
2		C		-6.1203		1.5016		0.8170		C.1		1		UNL1		0.2274
3		C		-5.0593		0.6193		0.4386		C.ar		1		UNL1		0.1318
4		C		-3.7189		0.9798		0.6529		C.ar		1		UNL1		-0.1530
5		C		-2.6784		0.1334		0.2908		C.ar		1		UNL1		-0.1589
6		C		-2.9631		-1.1106		-0.3019		C.ar		1		UNL1		0.3826
7		N		-1.9957		-2.0294		-0.7100		N.pl3		1		UNL1		-0.7639
8		C		-0.6206		-2.0410		-0.6159		C.ar		1		UNL1		0.6884
9		N		-0.0576		-3.1308		-1.1829		N.ar		1		UNL1		-0.4806
10		C		1.2677		-3.1932		-1.1107		C.ar		1		UNL1		0.0698
11		C		2.0513		-2.2125		-0.4960		C.ar		1		UNL1		-0.2036
12		C		1.3636		-1.1333		0.0508		C.ar		1		UNL1		0.3440
13		C		2.0052		0.0696		0.7265		C.3		1		UNL1		-0.2954
14		BR		3.8342		-0.3701		1.4159		Br		1		UNL1		-0.1274
15		C		2.0668		1.2905		-0.1580		C.ar		1		UNL1		0.2017
16		C		1.4498		2.4752		0.2583		C.ar		1		UNL1		-0.1805
17		C		1.4692		3.6081		-0.5571		C.ar		1		UNL1		-0.1276
18		C		2.1087		3.5656		-1.7956		C.ar		1		UNL1		-0.1240
19		C		2.7306		2.3859		-2.2155		C.ar		1		UNL1		-0.1296
20		C		2.7111		1.2559		-1.4024		C.ar		1		UNL1		-0.1611
21		N		0.0259		-1.0436		-0.0022		N.ar		1		UNL1		-0.5282
22		C		-4.3088		-1.4717		-0.5184		C.ar		1		UNL1		-0.2045
23		C		-5.3416		-0.6235		-0.1557		C.ar		1		UNL1		-0.1403
24		H		-3.4925		1.9388		1.1082		H		1		UNL1		0.1564
25		H		-1.6505		0.4203		0.4571		H		1		UNL1		0.1841
26		H		-2.3396		-2.8612		-1.1733		H		1		UNL1		0.3493
27		H		1.7306		-4.0694		-1.5619		H		1		UNL1		0.1602
28		H		3.1275		-2.2976		-0.4290		H		1		UNL1		0.1714
29		H		1.4378		0.2913		1.6293		H		1		UNL1		0.2035
30		H		0.9537		2.5123		1.2250		H		1		UNL1		0.1363
31		H		0.9860		4.5217		-0.2221		H		1		UNL1		0.1399
32		H		2.1254		4.4463		-2.4316		H		1		UNL1		0.1388
33		H		3.2331		2.3483		-3.1781		H		1		UNL1		0.1387
34		H		3.2031		0.3439		-1.7283		H		1		UNL1		0.1403
35		H		-4.5393		-2.4311		-0.9758		H		1		UNL1		0.1388
36		H		-6.3720		-0.9166		-0.3286		H		1		UNL1		0.1591
@<TRIPOS>BOND
1		33		19		1
2		32		18		1
3		19		18		ar
4		19		20		ar
5		18		17		ar
6		34		20		1
7		27		10		1
8		20		15		ar
9		9		10		ar
10		9		8		ar
11		26		7		1
12		10		11		ar
13		35		22		1
14		7		8		1
15		7		6		1
16		8		21		ar
17		17		31		1
18		17		16		ar
19		22		6		ar
20		22		23		ar
21		11		28		1
22		11		12		ar
23		36		23		1
24		6		5		ar
25		15		16		ar
26		15		13		1
27		23		3		ar
28		21		12		ar
29		12		13		1
30		16		30		1
31		5		25		1
32		5		4		ar
33		3		4		ar
34		3		2		1
35		4		24		1
36		13		14		1
37		13		29		1
38		2		1		3

