@<TRIPOS>MOLECULE
YZH-2014-BMC-3220-2-7n
 39 41 0 0 0
SMALL
MULLIKEN_CHARGES
****
Gaussian 16 #p B3LYP/6-31G* opt
@<TRIPOS>ATOM
1		C		-2.1406		3.6456		2.3440		C.3		1		UNL1		-0.5157
2		C		-1.4906		2.7526		1.3224		C.ar		1		UNL1		0.3494
3		C		-0.1885		2.9702		0.8652		C.ar		1		UNL1		-0.2397
4		C		0.3152		2.0752		-0.0835		C.ar		1		UNL1		0.3858
5		C		1.7321		2.2446		-0.6064		C.3		1		UNL1		-0.4066
6		CL		1.6541		2.6539		-2.4014		Cl		1		UNL1		-0.0577
7		C		2.6505		1.0727		-0.3501		C.ar		1		UNL1		0.1888
8		C		3.7499		1.2483		0.4977		C.ar		1		UNL1		-0.1774
9		C		4.6138		0.1910		0.7859		C.ar		1		UNL1		-0.1462
10		C		4.3715		-1.0521		0.2094		C.ar		1		UNL1		0.0865
11		BR		5.5473		-2.5098		0.5889		Br		1		UNL1		-0.1216
12		C		3.2867		-1.2509		-0.6455		C.ar		1		UNL1		-0.1525
13		C		2.4303		-0.1887		-0.9212		C.ar		1		UNL1		-0.1423
14		N		-0.4062		1.0554		-0.5415		N.ar		1		UNL1		-0.5363
15		C		-1.6537		0.9353		-0.0459		C.ar		1		UNL1		0.6972
16		N		-2.3481		-0.1325		-0.5723		N.pl3		1		UNL1		-0.7698
17		C		-3.6361		-0.6239		-0.3519		C.ar		1		UNL1		0.3828
18		C		-4.0148		-1.7575		-1.0998		C.ar		1		UNL1		-0.2052
19		C		-5.2707		-2.3220		-0.9521		C.ar		1		UNL1		-0.1400
20		C		-6.1923		-1.7671		-0.0465		C.ar		1		UNL1		0.1319
21		C		-7.4919		-2.3445		0.1125		C.1		1		UNL1		0.2279
22		N		-8.5490		-2.8148		0.2416		N.1		1		UNL1		-0.4836
23		C		-5.8154		-0.6378		0.6984		C.ar		1		UNL1		-0.1531
24		C		-4.5569		-0.0669		0.5545		C.ar		1		UNL1		-0.1590
25		N		-2.2293		1.7306		0.8650		N.ar		1		UNL1		-0.5281
26		H		-2.4352		3.0607		3.2224		H		1		UNL1		0.1836
27		H		-3.0542		4.0873		1.9307		H		1		UNL1		0.1849
28		H		-1.4732		4.4504		2.6634		H		1		UNL1		0.1608
29		H		0.4028		3.8027		1.2297		H		1		UNL1		0.1445
30		H		2.1602		3.1383		-0.1508		H		1		UNL1		0.1973
31		H		3.9422		2.2220		0.9418		H		1		UNL1		0.1400
32		H		5.4640		0.3345		1.4436		H		1		UNL1		0.1591
33		H		3.1173		-2.2252		-1.0908		H		1		UNL1		0.1587
34		H		1.5851		-0.3337		-1.5835		H		1		UNL1		0.1675
35		H		-1.7949		-0.6338		-1.2558		H		1		UNL1		0.3477
36		H		-3.3108		-2.1953		-1.8036		H		1		UNL1		0.1381
37		H		-5.5466		-3.1944		-1.5354		H		1		UNL1		0.1594
38		H		-6.5210		-0.2030		1.3994		H		1		UNL1		0.1581
39		H		-4.2748		0.8023		1.1303		H		1		UNL1		0.1849
@<TRIPOS>BOND
1		6		5		1
2		36		18		1
3		34		13		1
4		37		19		1
5		35		16		1
6		18		19		ar
7		18		17		ar
8		33		12		1
9		19		20		ar
10		13		12		ar
11		13		7		ar
12		12		10		ar
13		5		7		1
14		5		30		1
15		5		4		1
16		16		17		1
17		16		15		1
18		14		4		ar
19		14		15		ar
20		17		24		ar
21		7		8		ar
22		4		3		ar
23		20		21		1
24		20		23		ar
25		15		25		ar
26		21		22		3
27		10		11		1
28		10		9		ar
29		8		9		ar
30		8		31		1
31		24		23		ar
32		24		39		1
33		23		38		1
34		9		32		1
35		25		2		ar
36		3		29		1
37		3		2		ar
38		2		1		1
39		27		1		1
40		1		28		1
41		1		26		1

