@<TRIPOS>MOLECULE
YZH-2014-BMC-3220-2-7c
 40 42 0 0 0
SMALL
MULLIKEN_CHARGES
****
Gaussian 16 #p B3LYP/6-31G* opt
@<TRIPOS>ATOM
1		C		5.2496		4.0413		0.2475		C.3		1		UNL1		-0.2186
2		O		5.6398		2.7437		0.6733		O.3		1		UNL1		-0.5033
3		C		4.8166		1.6952		0.3966		C.ar		1		UNL1		0.3832
4		C		3.5926		1.7978		-0.2797		C.ar		1		UNL1		-0.1966
5		C		2.8280		0.6548		-0.5077		C.ar		1		UNL1		-0.1612
6		C		3.2599		-0.6032		-0.0732		C.ar		1		UNL1		0.1817
7		C		2.4554		-1.8581		-0.2987		C.3		1		UNL1		-0.3999
8		CL		2.3976		-2.3191		-2.0884		Cl		1		UNL1		-0.0701
9		C		1.0386		-1.8161		0.2466		C.ar		1		UNL1		0.3756
10		C		0.6968		-2.5980		1.3578		C.ar		1		UNL1		-0.2031
11		C		-0.6090		-2.4785		1.8206		C.ar		1		UNL1		0.0785
12		N		-1.5168		-1.6792		1.2541		N.ar		1		UNL1		-0.4742
13		C		-1.0858		-0.9802		0.1927		C.ar		1		UNL1		0.6946
14		N		-1.9435		-0.1334		-0.4755		N.pl3		1		UNL1		-0.7656
15		C		-3.2843		0.2011		-0.2780		C.ar		1		UNL1		0.3826
16		C		-3.8489		1.1102		-1.1959		C.ar		1		UNL1		-0.2055
17		C		-5.1703		1.5088		-1.0830		C.ar		1		UNL1		-0.1402
18		C		-5.9726		1.0079		-0.0425		C.ar		1		UNL1		0.1315
19		C		-7.3385		1.4161		0.0817		C.1		1		UNL1		0.2277
20		N		-8.4493		1.7497		0.1820		N.1		1		UNL1		-0.4841
21		C		-5.4106		0.1016		0.8715		C.ar		1		UNL1		-0.1530
22		C		-4.0856		-0.3023		0.7634		C.ar		1		UNL1		-0.1593
23		N		0.1543		-1.0074		-0.3332		N.ar		1		UNL1		-0.5256
24		C		4.4904		-0.6903		0.5966		C.ar		1		UNL1		-0.1807
25		C		5.2611		0.4394		0.8344		C.ar		1		UNL1		-0.1712
26		H		5.1483		4.0933		-0.8442		H		1		UNL1		0.1567
27		H		6.0479		4.7126		0.5684		H		1		UNL1		0.1745
28		H		4.3055		4.3514		0.7140		H		1		UNL1		0.1553
29		H		3.2297		2.7565		-0.6318		H		1		UNL1		0.1368
30		H		1.8822		0.7390		-1.0313		H		1		UNL1		0.1602
31		H		2.9727		-2.6978		0.1668		H		1		UNL1		0.1943
32		H		1.4085		-3.2630		1.8335		H		1		UNL1		0.1504
33		H		-0.9509		-3.0514		2.6809		H		1		UNL1		0.1588
34		H		-1.4897		0.3042		-1.2675		H		1		UNL1		0.3487
35		H		-3.2383		1.5038		-2.0053		H		1		UNL1		0.1379
36		H		-5.5900		2.2090		-1.7980		H		1		UNL1		0.1586
37		H		-6.0231		-0.2906		1.6772		H		1		UNL1		0.1587
38		H		-3.6618		-1.0013		1.4696		H		1		UNL1		0.1889
39		H		4.8524		-1.6584		0.9353		H		1		UNL1		0.1325
40		H		6.2124		0.3755		1.3528		H		1		UNL1		0.1443
@<TRIPOS>BOND
1		8		7		1
2		35		16		1
3		36		17		1
4		34		14		1
5		16		17		ar
6		16		15		ar
7		17		18		ar
8		30		5		1
9		26		1		1
10		29		4		1
11		5		4		ar
12		5		6		ar
13		14		15		1
14		14		13		1
15		23		13		ar
16		23		9		ar
17		7		6		1
18		7		31		1
19		7		9		1
20		4		3		ar
21		15		22		ar
22		6		24		ar
23		18		19		1
24		18		21		ar
25		19		20		3
26		13		12		ar
27		9		10		ar
28		1		27		1
29		1		2		1
30		1		28		1
31		3		2		1
32		3		25		ar
33		24		25		ar
34		24		39		1
35		22		21		ar
36		22		38		1
37		25		40		1
38		21		37		1
39		12		11		ar
40		10		11		ar
41		10		32		1
42		11		33		1

