@<TRIPOS>MOLECULE
YZH-2014-BMC-2535-2-3c
 40 42 0 0 0
SMALL
MULLIKEN_CHARGES
****
Gaussian 16 #p B3LYP/6-31G* opt
@<TRIPOS>ATOM
1		C		3.2197		-1.3250		2.0947		C.3		1		UNL1		-0.4488
2		C		2.8852		-0.9853		0.6252		C.3		1		UNL1		0.1897
3		O		2.5968		-2.1964		-0.0575		O.3		1		UNL1		-0.6637
4		C		4.0329		-0.2826		-0.1127		C.ar		1		UNL1		0.1364
5		C		4.9966		0.4887		0.5492		C.ar		1		UNL1		-0.1923
6		C		6.0042		1.1409		-0.1666		C.ar		1		UNL1		-0.1352
7		C		6.0635		1.0300		-1.5549		C.ar		1		UNL1		-0.1257
8		C		5.1099		0.2584		-2.2230		C.ar		1		UNL1		-0.1310
9		C		4.1054		-0.3915		-1.5085		C.ar		1		UNL1		-0.1599
10		C		1.6255		-0.0928		0.6197		C.ar		1		UNL1		0.3449
11		C		1.6359		1.2685		0.9497		C.ar		1		UNL1		-0.1920
12		C		0.4061		1.9116		0.9502		C.ar		1		UNL1		0.0692
13		N		-0.7495		1.3015		0.6546		N.ar		1		UNL1		-0.4786
14		C		-0.6531		0.0035		0.3489		C.ar		1		UNL1		0.7062
15		N		-1.7754		-0.7250		0.0223		N.pl3		1		UNL1		-0.7661
16		C		-3.1265		-0.3809		-0.0713		C.ar		1		UNL1		0.3818
17		C		-4.0150		-1.4113		-0.4394		C.ar		1		UNL1		-0.2060
18		C		-5.3737		-1.1712		-0.5588		C.ar		1		UNL1		-0.1399
19		C		-5.8877		0.1142		-0.3122		C.ar		1		UNL1		0.1322
20		C		-7.2904		0.3702		-0.4331		C.1		1		UNL1		0.2285
21		N		-8.4317		0.5771		-0.5317		N.1		1		UNL1		-0.4829
22		C		-5.0021		1.1407		0.0542		C.ar		1		UNL1		-0.1530
23		C		-3.6379		0.9062		0.1756		C.ar		1		UNL1		-0.1589
24		N		0.4881		-0.7200		0.3228		N.ar		1		UNL1		-0.6079
25		H		2.3842		-1.8857		2.5251		H		1		UNL1		0.1539
26		H		3.3870		-0.4372		2.7125		H		1		UNL1		0.1422
27		H		4.1131		-1.9555		2.1243		H		1		UNL1		0.1725
28		H		1.6212		-2.2629		-0.0665		H		1		UNL1		0.4061
29		H		4.9802		0.5798		1.6309		H		1		UNL1		0.1262
30		H		6.7457		1.7298		0.3670		H		1		UNL1		0.1308
31		H		6.8488		1.5344		-2.1115		H		1		UNL1		0.1315
32		H		5.1514		0.1578		-3.3045		H		1		UNL1		0.1325
33		H		3.3772		-1.0093		-2.0220		H		1		UNL1		0.1464
34		H		2.5547		1.7967		1.1714		H		1		UNL1		0.1590
35		H		0.3311		2.9699		1.1936		H		1		UNL1		0.1594
36		H		-1.5523		-1.6898		-0.1857		H		1		UNL1		0.3443
37		H		-3.6291		-2.4096		-0.6326		H		1		UNL1		0.1380
38		H		-6.0450		-1.9749		-0.8431		H		1		UNL1		0.1598
39		H		-5.3907		2.1358		0.2460		H		1		UNL1		0.1598
40		H		-2.9631		1.7011		0.4576		H		1		UNL1		0.1904
@<TRIPOS>BOND
1		32		8		1
2		8		7		ar
3		8		9		ar
4		31		7		1
5		33		9		1
6		7		6		ar
7		9		4		ar
8		38		18		1
9		37		17		1
10		18		17		ar
11		18		19		ar
12		21		20		3
13		17		16		ar
14		20		19		1
15		19		22		ar
16		36		15		1
17		6		30		1
18		6		5		ar
19		4		5		ar
20		4		2		1
21		16		15		1
22		16		23		ar
23		28		3		1
24		3		2		1
25		15		14		1
26		22		23		ar
27		22		39		1
28		23		40		1
29		24		14		ar
30		24		10		ar
31		14		13		ar
32		5		29		1
33		10		2		1
34		10		11		ar
35		2		1		1
36		13		12		ar
37		11		12		ar
38		11		34		1
39		12		35		1
40		1		27		1
41		1		25		1
42		1		26		1

