@<TRIPOS>MOLECULE
YZH-2014-BMC-3220-2-7h
 36 38 0 0 0
SMALL
MULLIKEN_CHARGES
****
Gaussian 16 #p B3LYP/6-31G* opt
@<TRIPOS>ATOM
1		N		-8.4672		1.1033		0.3775		N.1		1		UNL1		-0.4832
2		C		-7.3318		0.9076		0.2113		C.1		1		UNL1		0.2282
3		C		-5.9360		0.6681		0.0058		C.ar		1		UNL1		0.1319
4		C		-5.2396		-0.2436		0.8159		C.ar		1		UNL1		-0.1528
5		C		-3.8844		-0.4855		0.6276		C.ar		1		UNL1		-0.1595
6		C		-3.1892		0.1912		-0.3914		C.ar		1		UNL1		0.3822
7		N		-1.8304		0.0229		-0.6665		N.pl3		1		UNL1		-0.7644
8		C		-0.8548		-0.7624		-0.0932		C.ar		1		UNL1		0.6934
9		N		-1.1481		-1.5596		0.9444		N.ar		1		UNL1		-0.4728
10		C		-0.1289		-2.2829		1.4177		C.ar		1		UNL1		0.0703
11		C		1.1589		-2.2321		0.8942		C.ar		1		UNL1		-0.2004
12		C		1.3496		-1.3594		-0.1825		C.ar		1		UNL1		0.3510
13		C		2.6837		-1.1070		-0.8698		C.3		1		UNL1		-0.3886
14		CL		3.7702		-2.5927		-0.7785		Cl		1		UNL1		-0.0692
15		C		3.4075		0.1150		-0.3531		C.ar		1		UNL1		0.2028
16		C		3.9039		1.0548		-1.2645		C.ar		1		UNL1		-0.1761
17		C		4.5801		2.1926		-0.8267		C.ar		1		UNL1		-0.1953
18		C		4.7552		2.3757		0.5393		C.ar		1		UNL1		0.3866
19		F		5.4062		3.4717		0.9744		F		1		UNL1		-0.2910
20		C		4.2763		1.4617		1.4731		C.ar		1		UNL1		-0.1968
21		C		3.6018		0.3322		1.0184		C.ar		1		UNL1		-0.1599
22		N		0.3519		-0.6297		-0.6815		N.ar		1		UNL1		-0.5349
23		C		-3.8882		1.1063		-1.2046		C.ar		1		UNL1		-0.2052
24		C		-5.2390		1.3431		-1.0119		C.ar		1		UNL1		-0.1400
25		H		-5.7702		-0.7689		1.6037		H		1		UNL1		0.1594
26		H		-3.3562		-1.1880		1.2555		H		1		UNL1		0.1894
27		H		-1.4619		0.5732		-1.4321		H		1		UNL1		0.3478
28		H		-0.3613		-2.9361		2.2569		H		1		UNL1		0.1606
29		H		1.9591		-2.8471		1.2847		H		1		UNL1		0.1723
30		H		2.4802		-0.9822		-1.9333		H		1		UNL1		0.2122
31		H		3.7627		0.8971		-2.3305		H		1		UNL1		0.1458
32		H		4.9681		2.9287		-1.5227		H		1		UNL1		0.1553
33		H		4.4338		1.6437		2.5309		H		1		UNL1		0.1558
34		H		3.2239		-0.3860		1.7399		H		1		UNL1		0.1481
35		H		-3.3596		1.6343		-1.9949		H		1		UNL1		0.1378
36		H		-5.7629		2.0506		-1.6463		H		1		UNL1		0.1593
@<TRIPOS>BOND
1		31		16		1
2		35		23		1
3		30		13		1
4		36		24		1
5		32		17		1
6		27		7		1
7		16		17		ar
8		16		15		ar
9		23		24		ar
10		23		6		ar
11		24		3		ar
12		13		14		1
13		13		15		1
14		13		12		1
15		17		18		ar
16		22		12		ar
17		22		8		ar
18		7		6		1
19		7		8		1
20		6		5		ar
21		15		21		ar
22		12		11		ar
23		8		9		ar
24		3		2		1
25		3		4		ar
26		2		1		3
27		18		19		1
28		18		20		ar
29		5		4		ar
30		5		26		1
31		4		25		1
32		11		29		1
33		11		10		ar
34		9		10		ar
35		21		20		ar
36		21		34		1
37		10		28		1
38		20		33		1

