@<TRIPOS>MOLECULE
YZH-2014-BMC-2535-2-3j
 40 42 0 0 0
SMALL
MULLIKEN_CHARGES
****
Gaussian 16 #p B3LYP/6-31G* opt
@<TRIPOS>ATOM
1		C		1.8229		-3.1897		1.3345		C.3		1		UNL1		-0.4490
2		C		1.7337		-1.6860		0.9934		C.3		1		UNL1		0.1924
3		O		1.5684		-0.9639		2.2025		O.3		1		UNL1		-0.6634
4		C		2.9888		-1.1534		0.2857		C.ar		1		UNL1		0.1318
5		C		3.8093		-1.9592		-0.5133		C.ar		1		UNL1		-0.1851
6		C		4.9202		-1.4172		-1.1639		C.ar		1		UNL1		-0.1368
7		C		5.2338		-0.0661		-1.0298		C.ar		1		UNL1		-0.1430
8		C		4.4145		0.7272		-0.2282		C.ar		1		UNL1		0.0810
9		BR		4.8310		2.5850		-0.0212		Br		1		UNL1		-0.1294
10		C		3.3059		0.2042		0.4278		C.ar		1		UNL1		-0.1795
11		C		0.4922		-1.4674		0.1009		C.ar		1		UNL1		0.3468
12		C		0.4325		-1.8259		-1.2514		C.ar		1		UNL1		-0.1925
13		C		-0.7798		-1.6092		-1.8922		C.ar		1		UNL1		0.0709
14		N		-1.8544		-1.0867		-1.2877		N.ar		1		UNL1		-0.4774
15		C		-1.6950		-0.7732		0.0026		C.ar		1		UNL1		0.7084
16		N		-2.7302		-0.2239		0.7238		N.pl3		1		UNL1		-0.7659
17		C		-4.0421		0.1150		0.3789		C.ar		1		UNL1		0.3814
18		C		-4.5994		-0.0643		-0.8999		C.ar		1		UNL1		-0.1585
19		C		-5.9177		0.3069		-1.1352		C.ar		1		UNL1		-0.1527
20		C		-6.7107		0.8607		-0.1172		C.ar		1		UNL1		0.1327
21		C		-8.0673		1.2376		-0.3737		C.1		1		UNL1		0.2291
22		N		-9.1710		1.5440		-0.5810		N.1		1		UNL1		-0.4819
23		C		-6.1507		1.0392		1.1601		C.ar		1		UNL1		-0.1397
24		C		-4.8374		0.6712		1.4008		C.ar		1		UNL1		-0.2058
25		N		-0.5639		-0.9463		0.7228		N.ar		1		UNL1		-0.6090
26		H		2.6991		-3.3652		1.9653		H		1		UNL1		0.1742
27		H		1.8858		-3.8275		0.4474		H		1		UNL1		0.1427
28		H		0.9281		-3.4756		1.8958		H		1		UNL1		0.1576
29		H		0.6133		-0.7578		2.2541		H		1		UNL1		0.4088
30		H		3.5999		-3.0177		-0.6263		H		1		UNL1		0.1326
31		H		5.5518		-2.0552		-1.7760		H		1		UNL1		0.1418
32		H		6.0961		0.3623		-1.5286		H		1		UNL1		0.1555
33		H		2.6955		0.8298		1.0663		H		1		UNL1		0.1686
34		H		1.2882		-2.2308		-1.7770		H		1		UNL1		0.1569
35		H		-0.9059		-1.8592		-2.9440		H		1		UNL1		0.1611
36		H		-2.4662		-0.0360		1.6824		H		1		UNL1		0.3452
37		H		-3.9959		-0.4893		-1.6885		H		1		UNL1		0.1905
38		H		-6.3425		0.1662		-2.1241		H		1		UNL1		0.1605
39		H		-6.7505		1.4664		1.9571		H		1		UNL1		0.1607
40		H		-4.4150		0.8143		2.3928		H		1		UNL1		0.1389
@<TRIPOS>BOND
1		35		13		1
2		38		19		1
3		13		14		ar
4		13		12		ar
5		34		12		1
6		31		6		1
7		37		18		1
8		32		7		1
9		14		15		ar
10		12		11		ar
11		6		7		ar
12		6		5		ar
13		19		18		ar
14		19		20		ar
15		7		8		ar
16		18		17		ar
17		30		5		1
18		22		21		3
19		5		4		ar
20		21		20		1
21		8		9		1
22		8		10		ar
23		20		23		ar
24		15		25		ar
25		15		16		1
26		11		25		ar
27		11		2		1
28		4		10		ar
29		4		2		1
30		17		16		1
31		17		24		ar
32		10		33		1
33		27		1		1
34		16		36		1
35		2		1		1
36		2		3		1
37		23		24		ar
38		23		39		1
39		1		28		1
40		1		26		1
41		24		40		1
42		3		29		1

