@<TRIPOS>MOLECULE
YZH-2014-BMC-3220-2-7e
 36 38 0 0 0
SMALL
MULLIKEN_CHARGES
****
Gaussian 16 #p B3LYP/6-31G* opt
@<TRIPOS>ATOM
1		N		8.3812		-1.1076		-0.3469		N.1		1		UNL1		-0.4830
2		C		7.2410		-0.9096		-0.2208		C.1		1		UNL1		0.2284
3		C		5.8392		-0.6677		-0.0649		C.ar		1		UNL1		0.1321
4		C		5.1807		0.2709		-0.8759		C.ar		1		UNL1		-0.1528
5		C		3.8201		0.5153		-0.7358		C.ar		1		UNL1		-0.1590
6		C		3.0807		-0.1863		0.2339		C.ar		1		UNL1		0.3823
7		N		1.7117		-0.0212		0.4567		N.pl3		1		UNL1		-0.7650
8		C		0.7657		0.7955		-0.1210		C.ar		1		UNL1		0.6968
9		N		1.1137		1.6460		-1.1002		N.ar		1		UNL1		-0.4724
10		C		0.1246		2.3998		-1.5852		C.ar		1		UNL1		0.0794
11		C		-1.1857		2.3293		-1.1221		C.ar		1		UNL1		-0.2041
12		C		-1.4345		1.4023		-0.1031		C.ar		1		UNL1		0.3766
13		C		-2.8427		1.2359		0.4445		C.3		1		UNL1		-0.4023
14		CL		-2.8416		1.6364		2.2388		Cl		1		UNL1		-0.0531
15		C		-3.4621		-0.1201		0.1836		C.ar		1		UNL1		0.1834
16		C		-2.9303		-1.2998		0.7234		C.ar		1		UNL1		-0.1444
17		C		-3.5253		-2.5271		0.4379		C.ar		1		UNL1		-0.1355
18		C		-4.6509		-2.6044		-0.3862		C.ar		1		UNL1		-0.1907
19		C		-5.1626		-1.4251		-0.9097		C.ar		1		UNL1		0.3866
20		F		-6.2516		-1.4747		-1.7044		F		1		UNL1		-0.2954
21		C		-4.5923		-0.1863		-0.6386		C.ar		1		UNL1		-0.2506
22		N		-0.4684		0.6351		0.3956		N.ar		1		UNL1		-0.5259
23		C		3.7418		-1.1281		1.0483		C.ar		1		UNL1		-0.2052
24		C		5.0982		-1.3672		0.9039		C.ar		1		UNL1		-0.1399
25		H		5.7454		0.8156		-1.6260		H		1		UNL1		0.1595
26		H		3.3220		1.2400		-1.3631		H		1		UNL1		0.1890
27		H		1.3108		-0.5938		1.1889		H		1		UNL1		0.3488
28		H		0.3998		3.0931		-2.3780		H		1		UNL1		0.1610
29		H		-1.9664		2.9614		-1.5294		H		1		UNL1		0.1520
30		H		-3.4742		2.0061		0.0004		H		1		UNL1		0.1993
31		H		-2.0573		-1.2459		1.3623		H		1		UNL1		0.1611
32		H		-3.1114		-3.4377		0.8613		H		1		UNL1		0.1451
33		H		-5.1296		-3.5495		-0.6197		H		1		UNL1		0.1532
34		H		-5.0389		0.7055		-1.0676		H		1		UNL1		0.1465
35		H		3.1792		-1.6748		1.8015		H		1		UNL1		0.1384
36		H		5.5925		-2.0952		1.5388		H		1		UNL1		0.1596
@<TRIPOS>BOND
1		28		10		1
2		20		19		1
3		25		4		1
4		10		11		ar
5		10		9		ar
6		29		11		1
7		26		5		1
8		11		12		ar
9		9		8		ar
10		34		21		1
11		19		21		ar
12		19		18		ar
13		4		5		ar
14		4		3		ar
15		5		6		ar
16		21		15		ar
17		33		18		1
18		18		17		ar
19		1		2		3
20		2		3		1
21		8		22		ar
22		8		7		1
23		12		22		ar
24		12		13		1
25		3		24		ar
26		30		13		1
27		15		13		1
28		15		16		ar
29		6		7		1
30		6		23		ar
31		17		16		ar
32		17		32		1
33		13		14		1
34		7		27		1
35		16		31		1
36		24		23		ar
37		24		36		1
38		23		35		1

