@<TRIPOS>MOLECULE
YZH-2014-BMC-2535-2-3h
 40 42 0 0 0
SMALL
MULLIKEN_CHARGES
****
Gaussian 16 #p B3LYP/6-31G* opt
@<TRIPOS>ATOM
1		C		2.5616		0.8834		2.4238		C.3		1		UNL1		-0.4531
2		C		2.7334		1.0286		0.9027		C.3		1		UNL1		0.1980
3		O		3.5409		2.1753		0.6211		O.3		1		UNL1		-0.6499
4		C		3.4719		-0.1872		0.3241		C.ar		1		UNL1		0.1099
5		C		2.8818		-1.4590		0.3614		C.ar		1		UNL1		-0.1735
6		C		3.5631		-2.5675		-0.1400		C.ar		1		UNL1		-0.1366
7		C		4.8394		-2.4318		-0.6887		C.ar		1		UNL1		-0.1933
8		C		5.4029		-1.1632		-0.7184		C.ar		1		UNL1		0.3873
9		F		6.6369		-1.0093		-1.2462		F		1		UNL1		-0.2994
10		C		4.7488		-0.0400		-0.2256		C.ar		1		UNL1		-0.2454
11		C		1.3779		1.1851		0.1905		C.ar		1		UNL1		0.3102
12		C		1.2650		1.9641		-0.9701		C.ar		1		UNL1		-0.2012
13		C		0.0052		2.0280		-1.5491		C.ar		1		UNL1		0.0732
14		N		-1.0682		1.3993		-1.0530		N.ar		1		UNL1		-0.4767
15		C		-0.8506		0.6835		0.0568		C.ar		1		UNL1		0.6939
16		N		-1.8847		-0.0048		0.6567		N.pl3		1		UNL1		-0.7660
17		C		-3.2370		-0.1395		0.3391		C.ar		1		UNL1		0.3825
18		C		-3.8563		0.4600		-0.7732		C.ar		1		UNL1		-0.1598
19		C		-5.2127		0.2604		-0.9983		C.ar		1		UNL1		-0.1532
20		C		-5.9858		-0.5324		-0.1343		C.ar		1		UNL1		0.1313
21		C		-7.3820		-0.7290		-0.3781		C.1		1		UNL1		0.2276
22		N		-8.5181		-0.8897		-0.5750		N.1		1		UNL1		-0.4841
23		C		-5.3647		-1.1308		0.9764		C.ar		1		UNL1		-0.1402
24		C		-4.0131		-0.9356		1.2063		C.ar		1		UNL1		-0.2060
25		N		0.3266		0.5468		0.7051		N.ar		1		UNL1		-0.5601
26		H		1.9703		0.0027		2.6786		H		1		UNL1		0.1723
27		H		2.0444		1.7601		2.8348		H		1		UNL1		0.1367
28		H		3.5492		0.8031		2.8864		H		1		UNL1		0.1666
29		H		3.1547		2.9252		1.1005		H		1		UNL1		0.3976
30		H		1.8844		-1.5783		0.7720		H		1		UNL1		0.1453
31		H		3.0956		-3.5477		-0.1065		H		1		UNL1		0.1392
32		H		5.3900		-3.2777		-1.0865		H		1		UNL1		0.1467
33		H		5.2314		0.9277		-0.2693		H		1		UNL1		0.1714
34		H		2.1209		2.4798		-1.3846		H		1		UNL1		0.1653
35		H		-0.1646		2.6087		-2.4542		H		1		UNL1		0.1569
36		H		-1.5737		-0.4941		1.4862		H		1		UNL1		0.3439
37		H		-3.2685		1.0714		-1.4423		H		1		UNL1		0.1898
38		H		-5.6842		0.7257		-1.8583		H		1		UNL1		0.1589
39		H		-5.9481		-1.7463		1.6534		H		1		UNL1		0.1583
40		H		-3.5439		-1.4035		2.0687		H		1		UNL1		0.1359
@<TRIPOS>BOND
1		35		13		1
2		38		19		1
3		13		14		ar
4		13		12		ar
5		37		18		1
6		34		12		1
7		9		8		1
8		32		7		1
9		14		15		ar
10		19		18		ar
11		19		20		ar
12		12		11		ar
13		18		17		ar
14		8		7		ar
15		8		10		ar
16		7		6		ar
17		22		21		3
18		21		20		1
19		33		10		1
20		10		4		ar
21		6		31		1
22		6		5		ar
23		20		23		ar
24		15		16		1
25		15		25		ar
26		11		25		ar
27		11		2		1
28		4		5		ar
29		4		2		1
30		17		16		1
31		17		24		ar
32		5		30		1
33		3		2		1
34		3		29		1
35		16		36		1
36		2		1		1
37		23		24		ar
38		23		39		1
39		24		40		1
40		1		26		1
41		1		27		1
42		1		28		1

