#	Name:			GSX-2011-BMC-4220-12b
#	Creating user name:	Administrator
#	Creation time:		Sun Jul 05 17:01:36 2020

#	Modifying user name:	Administrator
#	Modification time:	Sun Jul 05 17:04:11 2020

@<TRIPOS>MOLECULE
GSX-2011-BMC-4220-12b
   55    58     1     0     0
SMALL
MULLIKEN_CHARGES
INVALID_CHARGES
Gaussian 16 #p B3LYP/6-31G* opt
@<TRIPOS>ATOM
      1 C          -1.812986   -1.475176   -0.991551 C.3       1 <1>        -0.564100 
      2 C          -2.998242   -0.981278   -0.194469 C.ar      1 <1>         0.151800 
      3 C          -4.287691   -1.398469   -0.521912 C.ar      1 <1>        -0.229300 
      4 C          -5.394136   -0.940067    0.195710 C.ar      1 <1>        -0.143100 
      5 S          -7.033217   -1.530215   -0.234522 S.o2      1 <1>         1.160400 
      6 N          -7.346897   -2.879990    0.732098 N.3       1 <1>        -0.785200 
      7 O          -7.994581   -0.516184    0.195536 O.2       1 <1>        -0.527100 
      8 O          -6.971341   -2.041343   -1.603657 O.2       1 <1>        -0.529700 
      9 C          -5.231934   -0.042089    1.250223 C.ar      1 <1>        -0.174000 
     10 C          -3.955208    0.385739    1.599991 C.ar      1 <1>        -0.153400 
     11 C          -2.838323   -0.081675    0.888009 C.ar      1 <1>         0.296800 
     12 N          -1.529807    0.324594    1.203294 N.am      1 <1>        -0.740500 
     13 C          -1.103204    1.158199    2.202323 C.2       1 <1>         0.582800 
     14 O          -1.799534    1.723088    3.032141 O.2       1 <1>        -0.496400 
     15 C           0.414285    1.372093    2.233468 C.3       1 <1>        -0.114300 
     16 O           1.029406    0.606902    1.211663 O.3       1 <1>        -0.550100 
     17 C           2.387810    0.665505    1.043669 C.ar      1 <1>         0.351200 
     18 C           3.257894    1.425878    1.820832 C.ar      1 <1>        -0.202100 
     19 C           4.634363    1.417385    1.563177 C.ar      1 <1>        -0.210100 
     20 C           5.109663    0.634064    0.525696 C.ar      1 <1>         0.387900 
     21 F           6.433938    0.608774    0.265601 F         1 <1>        -0.298400 
     22 C           4.267172   -0.143583   -0.266240 C.ar      1 <1>        -0.264900 
     23 C           2.899761   -0.122867   -0.009798 C.ar      1 <1>         0.317900 
     24 O           1.979027   -0.877759   -0.696873 O.3       1 <1>        -0.586900 
     25 C           2.278443   -1.328229   -1.977624 C.ar      1 <1>         0.335100 
     26 C           2.526364   -0.398469   -3.018489 C.ar      1 <1>        -0.157200 
     27 C           2.730631   -0.857903   -4.297926 C.ar      1 <1>        -0.201600 
     28 C           2.691973   -2.247339   -4.598342 C.ar      1 <1>         0.143900 
     29 C           2.896386   -2.744737   -5.912503 C.ar      1 <1>        -0.192100 
     30 C           2.850103   -4.096647   -6.169716 C.ar      1 <1>        -0.133900 
     31 C           2.596344   -5.013488   -5.120396 C.ar      1 <1>        -0.134500 
     32 C           2.392601   -4.563696   -3.834952 C.ar      1 <1>        -0.189600 
     33 C           2.433577   -3.175358   -3.536746 C.ar      1 <1>         0.130300 
     34 C           2.233337   -2.679781   -2.220207 C.ar      1 <1>        -0.250000 
     35 H          -2.138199   -2.161607   -1.777607 H         1 <1>         0.175100 
     36 H          -1.272708   -0.654171   -1.481075 H         1 <1>         0.177900 
     37 H          -1.085614   -2.011483   -0.367686 H         1 <1>         0.173400 
     38 H          -4.439496   -2.070169   -1.361225 H         1 <1>         0.171600 
     39 H          -6.703864   -3.645235    0.543392 H         1 <1>         0.344900 
     40 H          -7.382342   -2.643617    1.720783 H         1 <1>         0.346700 
     41 H          -6.099262    0.338558    1.779849 H         1 <1>         0.176100 
     42 H          -3.808082    1.084104    2.411850 H         1 <1>         0.197600 
     43 H          -0.781538   -0.042485    0.626853 H         1 <1>         0.384500 
     44 H           0.606862    2.445091    2.101365 H         1 <1>         0.182600 
     45 H           0.776667    1.078892    3.227405 H         1 <1>         0.182800 
     46 H           2.875495    2.035736    2.631271 H         1 <1>         0.154500 
     47 H           5.321793    2.008458    2.157505 H         1 <1>         0.152400 
     48 H           4.679414   -0.752076   -1.062055 H         1 <1>         0.171100 
     49 H           2.544117    0.662886   -2.792113 H         1 <1>         0.149600 
     50 H           2.917175   -0.152453   -5.103854 H         1 <1>         0.142800 
     51 H           3.090482   -2.037257   -6.715133 H         1 <1>         0.135800 
     52 H           3.007867   -4.465422   -7.179294 H         1 <1>         0.136600 
     53 H           2.562455   -6.078047   -5.334805 H         1 <1>         0.136800 
     54 H           2.197981   -5.267425   -3.029276 H         1 <1>         0.134600 
     55 H           2.037799   -3.365139   -1.400731 H         1 <1>         0.143200 
@<TRIPOS>BOND
     1   32   54 1    
     2    6   39 1    
     3   34   55 1    
     4    6   40 1    
     5   31   53 1    
     6    5    6 1    
     7   32   31 ar   
     8   33   32 ar   
     9   31   30 ar   
    10    1   37 1    
    11   34   33 ar   
    12   25   34 ar   
    13   15   45 1    
    14   33   28 ar   
    15   22   48 1    
    16   23   24 1    
    17   24   25 1    
    18   23   22 ar   
    19   22   20 ar   
    20   20   21 1    
    21   17   23 ar   
    22   19   20 ar   
    23    1   35 1    
    24   16   17 1    
    25   17   18 ar   
    26   19   47 1    
    27   18   19 ar   
    28    2    1 1    
    29    1   36 1    
    30   15   16 1    
    31   18   46 1    
    32   12   43 1    
    33    3   38 1    
    34    3    2 ar   
    35    2   11 ar   
    36   13   15 1    
    37   15   44 1    
    38    4    3 ar   
    39   12   13 1    
    40   11   12 1    
    41   25   26 ar   
    42   13   14 2    
    43   11   10 ar   
    44    5    4 1    
    45    5    8 2    
    46    5    7 2    
    47    4    9 ar   
    48   10    9 ar   
    49   10   42 1    
    50    9   41 1    
    51   30   52 1    
    52   30   29 ar   
    53   28   29 ar   
    54   28   27 ar   
    55   29   51 1    
    56   26   27 ar   
    57   26   49 1    
    58   27   50 1    
@<TRIPOS>SUBSTRUCTURE
     1 ****       39 TEMP              0 ****  ****    0 ROOT 
