#	Name:			GSX-2011-BMC-4220-12s
#	Creating user name:	Administrator
#	Creation time:		Sun Jul 05 17:01:37 2020

#	Modifying user name:	Administrator
#	Modification time:	Sun Jul 05 17:04:11 2020

@<TRIPOS>MOLECULE
GSX-2011-BMC-4220-12s
   58    61     1     0     0
SMALL
MULLIKEN_CHARGES
INVALID_CHARGES
Gaussian 16 #p B3LYP/6-31G* opt
@<TRIPOS>ATOM
      1 C          -1.851801   -1.358205   -1.086680 C.3       1 <1>        -0.568900 
      2 C          -3.017926   -0.953950   -0.214914 C.ar      1 <1>         0.150100 
      3 C          -4.299825   -1.419119   -0.498082 C.ar      1 <1>        -0.210400 
      4 C          -5.384328   -1.057805    0.302955 C.ar      1 <1>        -0.126900 
      5 S          -7.011860   -1.674472   -0.097346 S.o2      1 <1>         1.163100 
      6 N          -7.544102   -0.612696   -1.319335 N.3       1 <1>        -0.814400 
      7 O          -6.868634   -2.977345   -0.755500 O.2       1 <1>        -0.546100 
      8 O          -7.859371   -1.491175    1.086415 O.2       1 <1>        -0.528700 
      9 C          -5.208455   -0.234066    1.411636 C.ar      1 <1>        -0.166800 
     10 C          -3.937168    0.245211    1.714841 C.ar      1 <1>        -0.154800 
     11 C          -2.844274   -0.105758    0.907443 C.ar      1 <1>         0.297500 
     12 N          -1.541553    0.353211    1.175456 N.am      1 <1>        -0.739400 
     13 C          -1.113032    1.193923    2.166511 C.2       1 <1>         0.585300 
     14 O          -1.797417    1.712668    3.035689 O.2       1 <1>        -0.496200 
     15 C           0.396930    1.456806    2.157592 C.3       1 <1>        -0.119200 
     16 O           0.978947    0.921388    0.978217 O.3       1 <1>        -0.545900 
     17 C           2.339055    0.816425    0.886717 C.ar      1 <1>         0.353800 
     18 C           3.246987    1.394563    1.769319 C.ar      1 <1>        -0.197800 
     19 C           4.624852    1.231114    1.583062 C.ar      1 <1>        -0.138700 
     20 C           5.075871    0.484973    0.503733 C.ar      1 <1>        -0.077500 
     21 CL          6.802180    0.266228    0.252554 Cl        1 <1>        -0.018400 
     22 C           4.184192   -0.103791   -0.398272 C.ar      1 <1>        -0.181900 
     23 C           2.817956    0.064964   -0.207322 C.ar      1 <1>         0.332100 
     24 O           1.848234   -0.464810   -1.030331 O.3       1 <1>        -0.580400 
     25 C           2.219639   -1.210829   -2.136512 C.ar      1 <1>         0.260600 
     26 C           2.418381   -0.532720   -3.373615 C.ar      1 <1>         0.181200 
     27 C           2.298358    0.969102   -3.433239 C.3       1 <1>        -0.531200 
     28 C           2.701442   -1.293258   -4.486357 C.ar      1 <1>        -0.289000 
     29 C           2.794295   -2.708363   -4.433959 C.ar      1 <1>         0.170300 
     30 C           3.087864   -3.475495   -5.592781 C.ar      1 <1>        -0.196800 
     31 C           3.169336   -4.847536   -5.532168 C.ar      1 <1>        -0.130500 
     32 C           2.958657   -5.515340   -4.302959 C.ar      1 <1>        -0.133500 
     33 C           2.671387   -4.805500   -3.158229 C.ar      1 <1>        -0.194200 
     34 C           2.581704   -3.388971   -3.189826 C.ar      1 <1>         0.123100 
     35 C           2.289990   -2.587172   -2.047276 C.ar      1 <1>        -0.192600 
     36 CL          2.001646   -3.346408   -0.492781 Cl        1 <1>         0.014400 
     37 H          -2.189069   -2.003606   -1.901954 H         1 <1>         0.173700 
     38 H          -1.086922   -1.913455   -0.527652 H         1 <1>         0.185300 
     39 H          -1.354569   -0.490684   -1.540833 H         1 <1>         0.170300 
     40 H          -4.455909   -2.082175   -1.343127 H         1 <1>         0.167300 
     41 H          -7.976184   -1.172331   -2.053001 H         1 <1>         0.355000 
     42 H          -8.216795    0.046622   -0.931283 H         1 <1>         0.350200 
     43 H          -6.054862    0.018058    2.041052 H         1 <1>         0.178000 
     44 H          -3.777153    0.884583    2.571455 H         1 <1>         0.196300 
     45 H          -0.805939    0.041958    0.551807 H         1 <1>         0.382700 
     46 H           0.826288    0.991243    3.054787 H         1 <1>         0.184700 
     47 H           0.550357    2.540764    2.224597 H         1 <1>         0.183800 
     48 H           2.893408    1.983460    2.608062 H         1 <1>         0.156000 
     49 H           5.328164    1.683056    2.273048 H         1 <1>         0.159200 
     50 H           4.551958   -0.693063   -1.229497 H         1 <1>         0.176700 
     51 H           3.063774    1.460130   -2.820569 H         1 <1>         0.175100 
     52 H           1.325970    1.304591   -3.055746 H         1 <1>         0.175400 
     53 H           2.410173    1.322352   -4.462035 H         1 <1>         0.162000 
     54 H           2.854871   -0.799912   -5.443113 H         1 <1>         0.137600 
     55 H           3.247571   -2.953355   -6.532851 H         1 <1>         0.138300 
     56 H           3.395054   -5.421276   -6.426608 H         1 <1>         0.139500 
     57 H           3.024388   -6.598884   -4.261429 H         1 <1>         0.141100 
     58 H           2.511880   -5.323787   -2.219725 H         1 <1>         0.160300 
@<TRIPOS>BOND
     1   33   58 1    
     2   32   57 1    
     3   35   36 1    
     4   33   32 ar   
     5   34   33 ar   
     6   32   31 ar   
     7   15   46 1    
     8    5    7 2    
     9    1   38 1    
    10    5    8 2    
    11   35   34 ar   
    12   25   35 ar   
    13   34   29 ar   
    14   19   49 1    
    15   20   21 1    
    16    9   43 1    
    17   20   19 ar   
    18   18   19 ar   
    19   10   44 1    
    20   22   20 ar   
    21   10    9 ar   
    22    9    4 ar   
    23   18   48 1    
    24   11   10 ar   
    25   13   14 2    
    26   17   18 ar   
    27   31   56 1    
    28   31   30 ar   
    29    4    5 1    
    30    5    6 1    
    31    3    4 ar   
    32   15   13 1    
    33   13   12 1    
    34   12   11 1    
    35   11    2 ar   
    36   16   15 1    
    37   15   47 1    
    38   12   45 1    
    39   22   50 1    
    40   23   22 ar   
    41    2    3 ar   
    42    3   40 1    
    43    2    1 1    
    44   23   17 ar   
    45   17   16 1    
    46   24   23 1    
    47    1   37 1    
    48    1   39 1    
    49   24   25 1    
    50   25   26 ar   
    51   29   30 ar   
    52   29   28 ar   
    53   30   55 1    
    54    6   41 1    
    55    6   42 1    
    56   26   28 ar   
    57   26   27 1    
    58   28   54 1    
    59   27   51 1    
    60   27   52 1    
    61   27   53 1    
@<TRIPOS>SUBSTRUCTURE
     1 ****       49 TEMP              0 ****  ****    0 ROOT 
