#	Name:			GSX-2011-BMC-4220-12a
#	Creating user name:	Administrator
#	Creation time:		Sun Jul 05 17:01:36 2020

#	Modifying user name:	Administrator
#	Modification time:	Sun Jul 05 17:04:11 2020

@<TRIPOS>MOLECULE
GSX-2011-BMC-4220-12a
   55    58     1     0     0
SMALL
MULLIKEN_CHARGES
INVALID_CHARGES
Gaussian 16 #p B3LYP/6-31G* opt
@<TRIPOS>ATOM
      1 C          -1.816587   -1.449220   -1.008970 C.3       1 <1>        -0.568500 
      2 C          -2.994923   -1.003980   -0.173652 C.ar      1 <1>         0.156600 
      3 C          -4.277062   -1.467802   -0.465274 C.ar      1 <1>        -0.228800 
      4 C          -5.374278   -1.072787    0.302012 C.ar      1 <1>        -0.142400 
      5 S          -7.013431   -1.665876   -0.128160 S.o2      1 <1>         1.162100 
      6 N          -7.703861   -0.521311   -1.159263 N.3       1 <1>        -0.785200 
      7 O          -6.843814   -2.868644   -0.942582 O.2       1 <1>        -0.528700 
      8 O          -7.825689   -1.631614    1.086789 O.2       1 <1>        -0.526100 
      9 C          -5.207041   -0.214053    1.387923 C.ar      1 <1>        -0.172800 
     10 C          -3.938193    0.265222    1.697760 C.ar      1 <1>        -0.154400 
     11 C          -2.833627   -0.120584    0.921252 C.ar      1 <1>         0.295800 
     12 N          -1.532316    0.335087    1.202641 N.am      1 <1>        -0.725300 
     13 C          -1.114330    1.237134    2.146980 C.2       1 <1>         0.583200 
     14 O          -1.817464    1.822979    2.956344 O.2       1 <1>        -0.494500 
     15 C           0.409801    1.432677    2.162880 C.3       1 <1>        -0.145200 
     16 O           1.051201    1.091041    0.939623 O.3       1 <1>        -0.536100 
     17 C           1.068675    2.020350   -0.074166 C.ar      1 <1>         0.354800 
     18 C           0.357354    3.221790   -0.079329 C.ar      1 <1>        -0.201100 
     19 C           0.437255    4.087830   -1.175173 C.ar      1 <1>        -0.205800 
     20 C           1.227772    3.734183   -2.257352 C.ar      1 <1>         0.384900 
     21 F           1.306673    4.560909   -3.319701 F         1 <1>        -0.295600 
     22 C           1.945980    2.541984   -2.281633 C.ar      1 <1>        -0.256500 
     23 C           1.865770    1.686710   -1.188399 C.ar      1 <1>         0.300000 
     24 O           2.492749    0.461966   -1.253636 O.3       1 <1>        -0.587300 
     25 C           3.598832    0.205270   -0.458650 C.ar      1 <1>         0.312100 
     26 C           4.327322    1.189891    0.168855 C.ar      1 <1>        -0.187100 
     27 C           5.464646    0.837674    0.934618 C.ar      1 <1>        -0.147100 
     28 C           5.857274   -0.474111    1.056149 C.ar      1 <1>        -0.186400 
     29 C           5.122732   -1.505838    0.410724 C.ar      1 <1>         0.131800 
     30 C           5.496120   -2.873179    0.509516 C.ar      1 <1>        -0.200000 
     31 C           4.768452   -3.855911   -0.123043 C.ar      1 <1>        -0.128500 
     32 C           3.626783   -3.516725   -0.887777 C.ar      1 <1>        -0.138400 
     33 C           3.233043   -2.202062   -1.006880 C.ar      1 <1>        -0.172900 
     34 C           3.966378   -1.169818   -0.365348 C.ar      1 <1>         0.063900 
     35 H          -2.143868   -2.119541   -1.807852 H         1 <1>         0.178400 
     36 H          -1.302113   -0.602655   -1.483731 H         1 <1>         0.173700 
     37 H          -1.071430   -1.995564   -0.414486 H         1 <1>         0.175400 
     38 H          -4.424716   -2.163702   -1.285360 H         1 <1>         0.173000 
     39 H          -7.194999   -0.432857   -2.035368 H         1 <1>         0.346100 
     40 H          -7.844569    0.375978   -0.701607 H         1 <1>         0.347500 
     41 H          -6.058734    0.059094    2.002389 H         1 <1>         0.177800 
     42 H          -3.787051    0.928815    2.537556 H         1 <1>         0.197500 
     43 H          -0.787082   -0.025524    0.619360 H         1 <1>         0.367100 
     44 H           0.624771    2.460269    2.469930 H         1 <1>         0.186200 
     45 H           0.835645    0.756844    2.911391 H         1 <1>         0.204200 
     46 H          -0.280602    3.490873    0.755006 H         1 <1>         0.170000 
     47 H          -0.115229    5.020694   -1.191126 H         1 <1>         0.157800 
     48 H           2.556471    2.275106   -3.136621 H         1 <1>         0.167900 
     49 H           4.036440    2.230443    0.073390 H         1 <1>         0.141700 
     50 H           6.029895    1.625536    1.424892 H         1 <1>         0.134400 
     51 H           6.732245   -0.739015    1.643696 H         1 <1>         0.129600 
     52 H           6.373832   -3.130404    1.097476 H         1 <1>         0.132700 
     53 H           5.069050   -4.896592   -0.037078 H         1 <1>         0.133100 
     54 H           3.059537   -4.299905   -1.383458 H         1 <1>         0.131500 
     55 H           2.360312   -1.937078   -1.593478 H         1 <1>         0.143800 
@<TRIPOS>BOND
     1   22   48 1    
     2   20   21 1    
     3    6   39 1    
     4    1   35 1    
     5   32   54 1    
     6   22   20 ar   
     7   23   22 ar   
     8   33   55 1    
     9    3   38 1    
    10   19   20 ar   
    11    1   36 1    
    12    5    7 2    
    13    6   40 1    
    14    5    6 1    
    15   33   32 ar   
    16   32   31 ar   
    17    1   37 1    
    18    2    1 1    
    19   34   33 ar   
    20   23   24 1    
    21   24   25 1    
    22   17   23 ar   
    23    2    3 ar   
    24    3    4 ar   
    25   31   53 1    
    26   30   31 ar   
    27   19   47 1    
    28   18   19 ar   
    29    4    5 1    
    30    5    8 2    
    31   25   34 ar   
    32   34   29 ar   
    33   11    2 ar   
    34   25   26 ar   
    35    9    4 ar   
    36   29   30 ar   
    37   30   52 1    
    38   17   18 ar   
    39   16   17 1    
    40   29   28 ar   
    41   18   46 1    
    42   26   49 1    
    43   26   27 ar   
    44   12   43 1    
    45   12   11 1    
    46   11   10 ar   
    47   27   28 ar   
    48   28   51 1    
    49   15   16 1    
    50   27   50 1    
    51   13   12 1    
    52   10    9 ar   
    53    9   41 1    
    54   10   42 1    
    55   13   15 1    
    56   13   14 2    
    57   15   44 1    
    58   15   45 1    
@<TRIPOS>SUBSTRUCTURE
     1 ****       39 TEMP              0 ****  ****    0 ROOT 
