#	Name:			GSX-2011-BMC-4220-12e
#	Creating user name:	Administrator
#	Creation time:		Sun Jul 05 17:01:36 2020

#	Modifying user name:	Administrator
#	Modification time:	Sun Jul 05 17:04:11 2020

@<TRIPOS>MOLECULE
GSX-2011-BMC-4220-12e
   55    58     1     0     0
SMALL
MULLIKEN_CHARGES
INVALID_CHARGES
Gaussian 16 #p B3LYP/6-31G* opt
@<TRIPOS>ATOM
      1 C          -1.816289   -1.454213   -1.005920 C.3       1 <1>        -0.568500 
      2 C          -2.994433   -1.007838   -0.171210 C.ar      1 <1>         0.157100 
      3 C          -4.276828   -1.470107   -0.464103 C.ar      1 <1>        -0.228700 
      4 C          -5.374044   -1.073330    0.301986 C.ar      1 <1>        -0.142500 
      5 S          -7.013398   -1.664831   -0.129244 S.o2      1 <1>         1.162100 
      6 N          -7.708400   -0.512317   -1.148109 N.3       1 <1>        -0.785200 
      7 O          -6.843492   -2.859846   -0.955178 O.2       1 <1>        -0.528900 
      8 O          -7.822666   -1.643056    1.087797 O.2       1 <1>        -0.525800 
      9 C          -5.206246   -0.214198    1.387579 C.ar      1 <1>        -0.172500 
     10 C          -3.937125    0.263745    1.698107 C.ar      1 <1>        -0.154300 
     11 C          -2.831995   -0.124087    0.923063 C.ar      1 <1>         0.296800 
     12 N          -1.530728    0.329942    1.205982 N.am      1 <1>        -0.725700 
     13 C          -1.114863    1.239814    2.144492 C.2       1 <1>         0.582300 
     14 O          -1.821473    1.834596    2.943893 O.2       1 <1>        -0.493900 
     15 C           0.409162    1.432953    2.167548 C.3       1 <1>        -0.146000 
     16 O           1.066305    1.049794    0.965027 O.3       1 <1>        -0.531700 
     17 C           1.129961    1.963470   -0.061093 C.ar      1 <1>         0.324900 
     18 C           0.391282    3.142883   -0.131832 C.ar      1 <1>        -0.193400 
     19 C           0.528147    4.006959   -1.224036 C.ar      1 <1>        -0.142200 
     20 C           1.410818    3.673744   -2.242174 C.ar      1 <1>        -0.075000 
     21 CL          1.600629    4.748233   -3.620514 Cl        1 <1>        -0.017300 
     22 C           2.160107    2.495633   -2.197482 C.ar      1 <1>        -0.184400 
     23 C           2.013792    1.637015   -1.112161 C.ar      1 <1>         0.325800 
     24 O           2.717233    0.466583   -0.957769 O.3       1 <1>        -0.560400 
     25 C           3.396446   -0.075435   -2.029510 C.ar      1 <1>         0.331900 
     26 C           2.670295   -0.612488   -3.120238 C.ar      1 <1>        -0.151100 
     27 C           3.331900   -1.236159   -4.147788 C.ar      1 <1>        -0.199700 
     28 C           4.746610   -1.361897   -4.135262 C.ar      1 <1>         0.151400 
     29 C           5.442669   -2.008743   -5.190249 C.ar      1 <1>        -0.194600 
     30 C           6.813157   -2.128004   -5.166880 C.ar      1 <1>        -0.129900 
     31 C           7.548275   -1.601744   -4.079178 C.ar      1 <1>        -0.132100 
     32 C           6.907821   -0.968357   -3.037085 C.ar      1 <1>        -0.193900 
     33 C           5.494857   -0.828901   -3.031877 C.ar      1 <1>         0.127500 
     34 C           4.773194   -0.177622   -1.985569 C.ar      1 <1>        -0.206100 
     35 CL          5.626464    0.499079   -0.614249 Cl        1 <1>         0.020200 
     36 H          -2.143804   -2.123606   -1.805479 H         1 <1>         0.178100 
     37 H          -1.302170   -0.605953   -1.478637 H         1 <1>         0.168800 
     38 H          -1.071602   -2.001436   -0.411621 H         1 <1>         0.175800 
     39 H          -4.425030   -2.165824   -1.284117 H         1 <1>         0.172800 
     40 H          -7.851790    0.379981   -0.681480 H         1 <1>         0.347800 
     41 H          -7.201197   -0.413419   -2.024039 H         1 <1>         0.345900 
     42 H          -6.057703    0.060396    2.001770 H         1 <1>         0.177800 
     43 H          -3.786048    0.928262    2.537209 H         1 <1>         0.198300 
     44 H          -0.782054   -0.038599    0.632192 H         1 <1>         0.365700 
     45 H           0.622818    2.470245    2.441406 H         1 <1>         0.188500 
     46 H           0.823005    0.782563    2.945090 H         1 <1>         0.202700 
     47 H          -0.307932    3.402219    0.655352 H         1 <1>         0.167600 
     48 H          -0.051398    4.921566   -1.273541 H         1 <1>         0.161000 
     49 H           2.854488    2.255822   -2.993295 H         1 <1>         0.178400 
     50 H           1.588633   -0.523211   -3.114890 H         1 <1>         0.148600 
     51 H           2.774974   -1.650381   -4.983807 H         1 <1>         0.145600 
     52 H           4.867132   -2.409791   -6.020863 H         1 <1>         0.138700 
     53 H           7.332993   -2.625188   -5.980812 H         1 <1>         0.139900 
     54 H           8.630250   -1.698280   -4.065064 H         1 <1>         0.141300 
     55 H           7.479590   -0.568148   -2.207964 H         1 <1>         0.160700 
@<TRIPOS>BOND
     1   20   21 1    
     2    6   41 1    
     3   19   48 1    
     4   19   20 ar   
     5   22   20 ar   
     6    6   40 1    
     7    5    6 1    
     8   18   19 ar   
     9   22   49 1    
    10   27   51 1    
    11   29   52 1    
    12   23   22 ar   
    13   26   27 ar   
    14   27   28 ar   
    15   26   50 1    
    16   28   29 ar   
    17   29   30 ar   
    18   30   53 1    
    19    5    7 2    
    20   25   26 ar   
    21    4    5 1    
    22    5    8 2    
    23   18   47 1    
    24   17   18 ar   
    25    3   39 1    
    26   33   28 ar   
    27    1   37 1    
    28   31   30 ar   
    29    1   36 1    
    30   17   23 ar   
    31   23   24 1    
    32    3    4 ar   
    33    2    3 ar   
    34    9    4 ar   
    35    2    1 1    
    36    1   38 1    
    37   24   25 1    
    38   25   34 ar   
    39   16   17 1    
    40   11    2 ar   
    41   34   33 ar   
    42   33   32 ar   
    43   31   54 1    
    44   32   31 ar   
    45    9   42 1    
    46   10    9 ar   
    47   34   35 1    
    48   11   10 ar   
    49   12   11 1    
    50   32   55 1    
    51   10   43 1    
    52   12   44 1    
    53   13   12 1    
    54   15   16 1    
    55   13   14 2    
    56   13   15 1    
    57   15   45 1    
    58   15   46 1    
@<TRIPOS>SUBSTRUCTURE
     1 ****       37 TEMP              0 ****  ****    0 ROOT 
