#	Name:			GSX-2011-BMC-4220-12l
#	Creating user name:	Administrator
#	Creation time:		Sun Jul 05 17:01:37 2020

#	Modifying user name:	Administrator
#	Modification time:	Sun Jul 05 17:04:11 2020

@<TRIPOS>MOLECULE
GSX-2011-BMC-4220-12l
   55    58     1     0     0
SMALL
MULLIKEN_CHARGES
INVALID_CHARGES
Gaussian 16 #p B3LYP/6-31G* opt
@<TRIPOS>ATOM
      1 C          -1.778663   -1.009430   -0.925954 C.3       1 <1>        -0.537500 
      2 C          -3.025627   -0.627613   -0.169808 C.ar      1 <1>         0.194700 
      3 C          -4.222080   -1.321255   -0.403153 C.ar      1 <1>        -0.217500 
      4 C          -5.380394   -1.001171    0.298216 C.ar      1 <1>        -0.116800 
      5 S          -6.893098   -1.907742   -0.041137 S.o2      1 <1>         1.172900 
      6 N          -7.665292   -0.950030   -1.213664 N.3       1 <1>        -0.816200 
      7 O          -7.727045   -1.846426    1.162798 O.2       1 <1>        -0.537200 
      8 O          -6.520775   -3.174148   -0.677672 O.2       1 <1>        -0.527500 
      9 C          -5.395510    0.007252    1.262082 C.ar      1 <1>        -0.157500 
     10 C          -4.216765    0.705323    1.498750 C.ar      1 <1>        -0.125200 
     11 C          -3.042934    0.394316    0.797737 C.ar      1 <1>         0.185100 
     12 N          -1.866350    1.172674    1.064942 N.am      1 <1>        -0.674500 
     13 C          -0.968997    1.027413    2.093365 C.2       1 <1>         0.566500 
     14 O          -0.118150    1.876917    2.325604 O.2       1 <1>        -0.489800 
     15 C          -1.061136   -0.268853    2.914574 C.3       1 <1>        -0.124800 
     16 O          -0.631804   -1.412191    2.182709 O.3       1 <1>        -0.521700 
     17 C           0.713760   -1.669254    2.083647 C.ar      1 <1>         0.324600 
     18 C           1.736578   -0.794802    2.458409 C.ar      1 <1>        -0.205200 
     19 C           3.076574   -1.177706    2.338601 C.ar      1 <1>        -0.210700 
     20 C           3.375203   -2.429280    1.825144 C.ar      1 <1>         0.384200 
     21 F           4.666043   -2.806685    1.697517 F         1 <1>        -0.301100 
     22 C           2.382018   -3.312782    1.414725 C.ar      1 <1>        -0.252700 
     23 C           1.050284   -2.930358    1.550901 C.ar      1 <1>         0.307700 
     24 O           0.005141   -3.713438    1.105475 O.3       1 <1>        -0.565900 
     25 C           0.051294   -5.077769    1.269468 C.ar      1 <1>         0.356500 
     26 C           0.406590   -5.645674    2.518622 C.ar      1 <1>        -0.155500 
     27 C           0.371279   -7.005637    2.692501 C.ar      1 <1>        -0.199400 
     28 C          -0.027376   -7.869995    1.638662 C.ar      1 <1>         0.149100 
     29 C          -0.070691   -9.278618    1.808984 C.ar      1 <1>        -0.194100 
     30 C          -0.462117  -10.105956    0.781552 C.ar      1 <1>        -0.131800 
     31 C          -0.829048   -9.551787   -0.466729 C.ar      1 <1>        -0.132400 
     32 C          -0.800174   -8.189600   -0.669300 C.ar      1 <1>        -0.195200 
     33 C          -0.400452   -7.309207    0.371060 C.ar      1 <1>         0.133200 
     34 C          -0.339998   -5.891112    0.222431 C.ar      1 <1>        -0.222900 
     35 CL         -0.771307   -5.148739   -1.307182 Cl        1 <1>         0.006700 
     36 H          -1.259818   -1.825863   -0.411450 H         1 <1>         0.221000 
     37 H          -2.028389   -1.355944   -1.933518 H         1 <1>         0.159000 
     38 H          -1.080357   -0.172798   -1.006216 H         1 <1>         0.160300 
     39 H          -4.243132   -2.129587   -1.127326 H         1 <1>         0.181300 
     40 H          -7.716556   -1.464280   -2.091060 H         1 <1>         0.356900 
     41 H          -8.595815   -0.706464   -0.879434 H         1 <1>         0.358300 
     42 H          -6.302350    0.228749    1.813670 H         1 <1>         0.178800 
     43 H          -4.191062    1.504308    2.234182 H         1 <1>         0.149600 
     44 H          -1.743301    2.040192    0.551675 H         1 <1>         0.343500 
     45 H          -2.096487   -0.484151    3.189820 H         1 <1>         0.177000 
     46 H          -0.466987   -0.127177    3.822379 H         1 <1>         0.175100 
     47 H           1.498243    0.199324    2.818414 H         1 <1>         0.190100 
     48 H           3.876897   -0.506671    2.630204 H         1 <1>         0.151400 
     49 H           2.645666   -4.276736    0.995305 H         1 <1>         0.166600 
     50 H           0.697266   -4.982162    3.326172 H         1 <1>         0.155700 
     51 H           0.641090   -7.437776    3.652456 H         1 <1>         0.142500 
     52 H           0.212681   -9.691747    2.774034 H         1 <1>         0.135200 
     53 H          -0.491451  -11.182155    0.925921 H         1 <1>         0.135300 
     54 H          -1.139036  -10.207727   -1.275592 H         1 <1>         0.136900 
     55 H          -1.084860   -7.775055   -1.629342 H         1 <1>         0.157300 
@<TRIPOS>BOND
     1   27   51 1    
     2   29   52 1    
     3   15   46 1    
     4   26   50 1    
     5   15   45 1    
     6   26   27 ar   
     7   27   28 ar   
     8    5    7 2    
     9    9   42 1    
    10   28   29 ar   
    11   29   30 ar   
    12   25   26 ar   
    13   15   16 1    
    14   13   15 1    
    15   10   43 1    
    16   33   28 ar   
    17   30   53 1    
    18   10    9 ar   
    19    9    4 ar   
    20   16   17 1    
    21   30   31 ar   
    22   11   10 ar   
    23   18   47 1    
    24   13   14 2    
    25   12   13 1    
    26   17   18 ar   
    27   17   23 ar   
    28   18   19 ar   
    29    4    5 1    
    30    5    8 2    
    31    5    6 1    
    32   24   25 1    
    33   25   34 ar   
    34    4    3 ar   
    35   23   24 1    
    36   23   22 ar   
    37   19   48 1    
    38   19   20 ar   
    39   34   33 ar   
    40   33   32 ar   
    41   11   12 1    
    42   11    2 ar   
    43    6   41 1    
    44   12   44 1    
    45   20   22 ar   
    46   20   21 1    
    47   22   49 1    
    48   31   32 ar   
    49   31   54 1    
    50   34   35 1    
    51    6   40 1    
    52    3    2 ar   
    53    3   39 1    
    54   32   55 1    
    55    2    1 1    
    56    1   36 1    
    57    1   38 1    
    58    1   37 1    
@<TRIPOS>SUBSTRUCTURE
     1 ****        7 TEMP              0 ****  ****    0 ROOT 
