#	Name:			GSX-2011-BMC-4220-12t
#	Creating user name:	Administrator
#	Creation time:		Sun Jul 05 17:01:37 2020

#	Modifying user name:	Administrator
#	Modification time:	Sun Jul 05 17:04:11 2020

@<TRIPOS>MOLECULE
GSX-2011-BMC-4220-12t
   58    61     1     0     0
SMALL
MULLIKEN_CHARGES
INVALID_CHARGES
Gaussian 16 #p B3LYP/6-31G* opt
@<TRIPOS>ATOM
      1 C          -1.834029   -1.449798   -1.010805 C.3       1 <1>        -0.567100 
      2 C          -3.014688   -0.973171   -0.196637 C.ar      1 <1>         0.154100 
      3 C          -4.303505   -1.391968   -0.518531 C.ar      1 <1>        -0.211300 
      4 C          -5.402435   -0.951485    0.220359 C.ar      1 <1>        -0.125700 
      5 S          -7.038610   -1.514844   -0.224385 S.o2      1 <1>         1.164600 
      6 N          -7.156413   -3.030079    0.544219 N.3       1 <1>        -0.814500 
      7 O          -7.052783   -1.805925   -1.661795 O.2       1 <1>        -0.545000 
      8 O          -8.004702   -0.601234    0.395306 O.2       1 <1>        -0.528500 
      9 C          -5.237793   -0.072580    1.287789 C.ar      1 <1>        -0.165300 
     10 C          -3.959246    0.357803    1.631041 C.ar      1 <1>        -0.156100 
     11 C          -2.849036   -0.090344    0.899207 C.ar      1 <1>         0.298000 
     12 N          -1.538669    0.315357    1.213193 N.am      1 <1>        -0.726600 
     13 C          -1.107970    1.183538    2.182956 C.2       1 <1>         0.584100 
     14 O          -1.804414    1.774785    2.994196 O.2       1 <1>        -0.494900 
     15 C           0.421476    1.327171    2.230569 C.3       1 <1>        -0.145800 
     16 O           1.082285    0.958404    1.027010 O.3       1 <1>        -0.533100 
     17 C           1.156686    1.886156    0.012118 C.ar      1 <1>         0.323200 
     18 C           0.498182    3.113366   -0.005958 C.ar      1 <1>        -0.194400 
     19 C           0.652616    3.990412   -1.086112 C.ar      1 <1>        -0.142600 
     20 C           1.464822    3.616524   -2.147159 C.ar      1 <1>        -0.074900 
     21 CL          1.672582    4.703905   -3.513483 Cl        1 <1>        -0.019400 
     22 C           2.122039    2.383297   -2.161761 C.ar      1 <1>        -0.190800 
     23 C           1.967003    1.515912   -1.084067 C.ar      1 <1>         0.327600 
     24 O           2.544827    0.273874   -1.006159 O.3       1 <1>        -0.577500 
     25 C           3.514436   -0.092107   -1.939144 C.ar      1 <1>         0.264400 
     26 C           3.141009   -0.850427   -3.021113 C.ar      1 <1>        -0.239600 
     27 C           4.115528   -1.313833   -3.943591 C.ar      1 <1>         0.129800 
     28 C           3.778313   -2.097990   -5.078519 C.ar      1 <1>        -0.189500 
     29 C           4.753936   -2.526660   -5.950571 C.ar      1 <1>        -0.136200 
     30 C           6.111746   -2.191229   -5.726209 C.ar      1 <1>        -0.134800 
     31 C           6.469059   -1.433166   -4.633682 C.ar      1 <1>        -0.194600 
     32 C           5.487586   -0.973832   -3.715266 C.ar      1 <1>         0.162700 
     33 C           5.821581   -0.194388   -2.575252 C.ar      1 <1>        -0.288900 
     34 C           4.872366    0.255064   -1.680480 C.ar      1 <1>         0.180500 
     35 C           5.234116    1.064198   -0.461292 C.3       1 <1>        -0.534700 
     36 H          -2.166222   -2.104369   -1.820723 H         1 <1>         0.176700 
     37 H          -1.286323   -0.615795   -1.470423 H         1 <1>         0.174600 
     38 H          -1.116849   -2.021159   -0.405519 H         1 <1>         0.171400 
     39 H          -4.458081   -2.055612   -1.363309 H         1 <1>         0.168500 
     40 H          -7.759690   -2.953786    1.361467 H         1 <1>         0.351600 
     41 H          -7.542943   -3.693699   -0.125237 H         1 <1>         0.356000 
     42 H          -6.102477    0.283834    1.836804 H         1 <1>         0.179000 
     43 H          -3.808394    1.041410    2.454544 H         1 <1>         0.196800 
     44 H          -0.794034   -0.060560    0.638778 H         1 <1>         0.367000 
     45 H           0.663784    2.347877    2.541136 H         1 <1>         0.185700 
     46 H           0.803445    0.640470    2.993233 H         1 <1>         0.198300 
     47 H          -0.149204    3.404665    0.813577 H         1 <1>         0.166900 
     48 H           0.139138    4.944935   -1.092921 H         1 <1>         0.160600 
     49 H           2.742147    2.099218   -3.002967 H         1 <1>         0.177300 
     50 H           2.093167   -1.099833   -3.162211 H         1 <1>         0.139700 
     51 H           2.735159   -2.353763   -5.248633 H         1 <1>         0.133300 
     52 H           4.484552   -3.125236   -6.816450 H         1 <1>         0.134700 
     53 H           6.871808   -2.535779   -6.421920 H         1 <1>         0.134200 
     54 H           7.510771   -1.174678   -4.459149 H         1 <1>         0.133500 
     55 H           6.868167    0.048098   -2.403262 H         1 <1>         0.132000 
     56 H           4.828396    0.609250    0.449192 H         1 <1>         0.175500 
     57 H           4.827210    2.081438   -0.516601 H         1 <1>         0.171000 
     58 H           6.320059    1.141481   -0.356468 H         1 <1>         0.158600 
@<TRIPOS>BOND
     1   15   46 1    
     2   35   56 1    
     3   35   58 1    
     4   15   45 1    
     5   13   15 1    
     6   15   16 1    
     7   34   35 1    
     8   35   57 1    
     9   13   14 2    
    10   12   13 1    
    11   16   17 1    
    12   33   55 1    
    13    1   38 1    
    14   12   44 1    
    15   11   12 1    
    16   34   33 ar   
    17   25   34 ar   
    18   33   32 ar   
    19    6   40 1    
    20   10   43 1    
    21   24   25 1    
    22   23   24 1    
    23   10   11 ar   
    24    2   11 ar   
    25   31   54 1    
    26   25   26 ar   
    27    9   10 ar   
    28    6   41 1    
    29    5    6 1    
    30   32   31 ar   
    31   27   32 ar   
    32   31   30 ar   
    33    2    1 1    
    34    1   36 1    
    35    1   37 1    
    36    3    2 ar   
    37   17   23 ar   
    38   17   18 ar   
    39    9   42 1    
    40    4    9 ar   
    41   26   27 ar   
    42   26   50 1    
    43   27   28 ar   
    44   23   22 ar   
    45    4    3 ar   
    46    3   39 1    
    47   30   53 1    
    48   30   29 ar   
    49    4    5 1    
    50   18   47 1    
    51   28   29 ar   
    52   28   51 1    
    53   18   19 ar   
    54   29   52 1    
    55    5    8 2    
    56    5    7 2    
    57   22   49 1    
    58   22   20 ar   
    59   19   20 ar   
    60   19   48 1    
    61   20   21 1    
@<TRIPOS>SUBSTRUCTURE
     1 ****       38 TEMP              0 ****  ****    0 ROOT 
