#	Name:			GSX-2011-BMC-4220-12j
#	Creating user name:	Administrator
#	Creation time:		Sun Jul 05 17:01:37 2020

#	Modifying user name:	Administrator
#	Modification time:	Sun Jul 05 17:04:11 2020

@<TRIPOS>MOLECULE
GSX-2011-BMC-4220-12j
   55    58     1     0     0
SMALL
MULLIKEN_CHARGES
INVALID_CHARGES
Gaussian 16 #p B3LYP/6-31G* opt
@<TRIPOS>ATOM
      1 C          -1.814577   -1.469157   -0.996448 C.3       1 <1>        -0.565100 
      2 C          -2.994451   -1.010990   -0.170532 C.ar      1 <1>         0.155000 
      3 C          -4.277060   -1.473266   -0.462339 C.ar      1 <1>        -0.229300 
      4 C          -5.374898   -1.070062    0.299764 C.ar      1 <1>        -0.143100 
      5 S          -7.014082   -1.662421   -0.129121 S.o2      1 <1>         1.161300 
      6 N          -7.702471   -0.520335   -1.165147 N.3       1 <1>        -0.785200 
      7 O          -6.846136   -2.868373   -0.939561 O.2       1 <1>        -0.529200 
      8 O          -7.828049   -1.623037    1.084491 O.2       1 <1>        -0.526400 
      9 C          -5.207479   -0.204003    1.379928 C.ar      1 <1>        -0.173100 
     10 C          -3.938386    0.275380    1.688432 C.ar      1 <1>        -0.155100 
     11 C          -2.832436   -0.118677    0.917357 C.ar      1 <1>         0.295900 
     12 N          -1.532023    0.337234    1.196752 N.am      1 <1>        -0.735300 
     13 C          -1.108275    1.212869    2.165307 C.2       1 <1>         0.580500 
     14 O          -1.808261    1.771631    2.995888 O.2       1 <1>        -0.492500 
     15 C           0.395769    1.500435    2.121911 C.3       1 <1>        -0.138300 
     16 O           1.108155    0.679422    1.185920 O.3       1 <1>        -0.559400 
     17 C           1.921863   -0.313526    1.701689 C.ar      1 <1>         0.324700 
     18 C           1.427890   -1.306762    2.550596 C.ar      1 <1>        -0.185300 
     19 C           2.248098   -2.333363    3.015908 C.ar      1 <1>        -0.206600 
     20 C           3.575012   -2.348575    2.603473 C.ar      1 <1>         0.392900 
     21 F           4.385791   -3.336042    3.032397 F         1 <1>        -0.294800 
     22 C           4.099872   -1.374860    1.766095 C.ar      1 <1>        -0.268800 
     23 C           3.274713   -0.341264    1.320952 C.ar      1 <1>         0.351300 
     24 O           3.861467    0.542427    0.444228 O.3       1 <1>        -0.588100 
     25 C           3.485469    1.858623    0.273367 C.ar      1 <1>         0.353800 
     26 C           3.239354    2.238679   -1.068320 C.ar      1 <1>        -0.169600 
     27 C           2.958928    3.542899   -1.383234 C.ar      1 <1>        -0.197300 
     28 C           2.900369    4.540797   -0.374966 C.ar      1 <1>         0.145800 
     29 C           2.598430    5.892881   -0.684617 C.ar      1 <1>        -0.194900 
     30 C           2.544245    6.852047    0.300286 C.ar      1 <1>        -0.131400 
     31 C           2.792608    6.492126    1.644920 C.ar      1 <1>        -0.130800 
     32 C           3.090702    5.190635    1.983019 C.ar      1 <1>        -0.193400 
     33 C           3.155512    4.175962    0.990407 C.ar      1 <1>         0.090100 
     34 C           3.464824    2.810555    1.274154 C.ar      1 <1>        -0.031100 
     35 BR          3.851832    2.285543    3.068652 Br        1 <1>        -0.105400 
     36 H          -1.309545   -0.631549   -1.497130 H         1 <1>         0.168900 
     37 H          -1.062131   -1.989273   -0.388206 H         1 <1>         0.173900 
     38 H          -2.137231   -2.165162   -1.774875 H         1 <1>         0.178100 
     39 H          -4.424436   -2.175684   -1.276907 H         1 <1>         0.172300 
     40 H          -7.841279    0.378655   -0.710054 H         1 <1>         0.347300 
     41 H          -7.190744   -0.434744   -2.039883 H         1 <1>         0.345400 
     42 H          -6.059658    0.076015    1.990651 H         1 <1>         0.177200 
     43 H          -3.786491    0.945283    2.523167 H         1 <1>         0.199200 
     44 H          -0.786168    0.011751    0.593355 H         1 <1>         0.368900 
     45 H           0.530018    2.541279    1.808450 H         1 <1>         0.201100 
     46 H           0.805695    1.397237    3.129985 H         1 <1>         0.196200 
     47 H           0.381125   -1.279732    2.837886 H         1 <1>         0.155100 
     48 H           1.871798   -3.109804    3.672234 H         1 <1>         0.156800 
     49 H           5.142080   -1.397973    1.470286 H         1 <1>         0.167300 
     50 H           3.284699    1.463938   -1.826549 H         1 <1>         0.152500 
     51 H           2.771679    3.827226   -2.415204 H         1 <1>         0.143400 
     52 H           2.409241    6.155149   -1.722709 H         1 <1>         0.137400 
     53 H           2.311190    7.882767    0.049343 H         1 <1>         0.138700 
     54 H           2.747555    7.250138    2.421835 H         1 <1>         0.140700 
     55 H           3.279149    4.924733    3.016590 H         1 <1>         0.157900 
@<TRIPOS>BOND
     1   26   50 1    
     2   27   51 1    
     3    1   38 1    
     4   26   27 ar   
     5   25   26 ar   
     6    1   36 1    
     7   27   28 ar   
     8   29   52 1    
     9    1   37 1    
    10    2    1 1    
    11    3   39 1    
    12   24   25 1    
    13   23   24 1    
    14    6   41 1    
    15   25   34 ar   
    16   22   49 1    
    17   28   29 ar   
    18   33   28 ar   
    19   29   30 ar   
    20    5    7 2    
    21    2    3 ar   
    22    3    4 ar   
    23   11    2 ar   
    24   23   22 ar   
    25   22   20 ar   
    26   17   23 ar   
    27    5    6 1    
    28    6   40 1    
    29   12   44 1    
    30   34   33 ar   
    31   34   35 1    
    32   16   17 1    
    33   15   16 1    
    34   17   18 ar   
    35   20   21 1    
    36   19   20 ar   
    37   33   32 ar   
    38    4    5 1    
    39    5    8 2    
    40   30   53 1    
    41   30   31 ar   
    42    4    9 ar   
    43   12   11 1    
    44   11   10 ar   
    45   13   12 1    
    46   18   19 ar   
    47   18   47 1    
    48   19   48 1    
    49   15   45 1    
    50   15   13 1    
    51   15   46 1    
    52   32   31 ar   
    53   32   55 1    
    54   31   54 1    
    55    9   10 ar   
    56    9   42 1    
    57   13   14 2    
    58   10   43 1    
@<TRIPOS>SUBSTRUCTURE
     1 ****       49 TEMP              0 ****  ****    0 ROOT 
