#	Name:			GSX-2011-BMC-4220-12q
#	Creating user name:	Administrator
#	Creation time:		Sun Jul 05 17:01:37 2020

#	Modifying user name:	Administrator
#	Modification time:	Sun Jul 05 17:04:11 2020

@<TRIPOS>MOLECULE
GSX-2011-BMC-4220-12q
   58    61     1     0     0
SMALL
MULLIKEN_CHARGES
INVALID_CHARGES
Gaussian 16 #p B3LYP/6-31G* opt
@<TRIPOS>ATOM
      1 C          -1.834520   -1.461176   -1.004006 C.3       1 <1>        -0.567200 
      2 C          -3.015263   -0.967516   -0.199381 C.ar      1 <1>         0.153600 
      3 C          -4.302038   -1.398918   -0.513291 C.ar      1 <1>        -0.211300 
      4 C          -5.402991   -0.949203    0.216056 C.ar      1 <1>        -0.124800 
      5 S          -7.037265   -1.528142   -0.219042 S.o2      1 <1>         1.165900 
      6 N          -7.159867   -3.016132    0.598355 N.3       1 <1>        -0.814700 
      7 O          -7.039869   -1.863299   -1.646785 O.2       1 <1>        -0.544000 
      8 O          -8.005666   -0.595248    0.366521 O.2       1 <1>        -0.527600 
      9 C          -5.241807   -0.047754    1.264815 C.ar      1 <1>        -0.164400 
     10 C          -3.965814    0.397780    1.598447 C.ar      1 <1>        -0.154100 
     11 C          -2.853036   -0.060545    0.877157 C.ar      1 <1>         0.295800 
     12 N          -1.542311    0.364804    1.177877 N.am      1 <1>        -0.732500 
     13 C          -1.102870    1.179545    2.201859 C.2       1 <1>         0.601800 
     14 O          -1.816158    1.734005    3.017194 O.2       1 <1>        -0.472100 
     15 C           0.436660    1.289027    2.250905 C.3       1 <1>        -0.140900 
     16 O           0.870836    2.357174    3.046209 O.3       1 <1>        -0.502400 
     17 C           0.705927    3.638427    2.581115 C.ar      1 <1>         0.357400 
     18 C           0.265238    3.991173    1.307258 C.ar      1 <1>        -0.192400 
     19 C           0.141824    5.336232    0.938148 C.ar      1 <1>        -0.207900 
     20 C           0.466142    6.311006    1.865535 C.ar      1 <1>         0.383200 
     21 F           0.352539    7.613702    1.527562 F         1 <1>        -0.300600 
     22 C           0.909149    5.995137    3.147524 C.ar      1 <1>        -0.256700 
     23 C           1.026188    4.656007    3.503707 C.ar      1 <1>         0.327800 
     24 O           1.479848    4.237510    4.732592 O.3       1 <1>        -0.563200 
     25 C           1.256980    5.031143    5.840687 C.ar      1 <1>         0.271200 
     26 C          -0.048608    5.058866    6.416243 C.ar      1 <1>         0.190100 
     27 C          -1.180360    4.305909    5.762917 C.3       1 <1>        -0.543000 
     28 C          -0.222422    5.778372    7.577596 C.ar      1 <1>        -0.289900 
     29 C           0.840755    6.475691    8.207561 C.ar      1 <1>         0.170000 
     30 C           0.639207    7.211902    9.405529 C.ar      1 <1>        -0.197600 
     31 C           1.678446    7.879822   10.011406 C.ar      1 <1>        -0.132200 
     32 C           2.972695    7.838317    9.441902 C.ar      1 <1>        -0.135000 
     33 C           3.206898    7.133274    8.282052 C.ar      1 <1>        -0.195300 
     34 C           2.154070    6.435225    7.633975 C.ar      1 <1>         0.125300 
     35 C           2.318818    5.689120    6.429947 C.ar      1 <1>        -0.212300 
     36 CL          3.898032    5.585615    5.671766 Cl        1 <1>         0.007800 
     37 H          -1.107342   -2.003993   -0.383774 H         1 <1>         0.165800 
     38 H          -1.300104   -0.640788   -1.503715 H         1 <1>         0.166700 
     39 H          -2.164034   -2.149314   -1.786534 H         1 <1>         0.183400 
     40 H          -4.453240   -2.081007   -1.343783 H         1 <1>         0.170100 
     41 H          -7.522858   -3.708071   -0.055259 H         1 <1>         0.357000 
     42 H          -7.782002   -2.917485    1.398748 H         1 <1>         0.353000 
     43 H          -6.107896    0.317129    1.806087 H         1 <1>         0.180800 
     44 H          -3.820089    1.100286    2.406398 H         1 <1>         0.199500 
     45 H          -0.821386   -0.008818    0.575985 H         1 <1>         0.340500 
     46 H           0.827665    0.389104    2.739186 H         1 <1>         0.196300 
     47 H           0.866228    1.329454    1.237839 H         1 <1>         0.151100 
     48 H          -0.011253    3.228021    0.588652 H         1 <1>         0.133400 
     49 H          -0.208702    5.619073   -0.047982 H         1 <1>         0.146800 
     50 H           1.159148    6.782936    3.848334 H         1 <1>         0.168800 
     51 H          -0.872353    3.306452    5.441071 H         1 <1>         0.196900 
     52 H          -1.540376    4.823300    4.865181 H         1 <1>         0.176500 
     53 H          -2.023252    4.209655    6.453505 H         1 <1>         0.155000 
     54 H          -1.206288    5.809455    8.040169 H         1 <1>         0.132700 
     55 H          -0.359142    7.236985    9.835405 H         1 <1>         0.134100 
     56 H           1.508511    8.439562   10.926900 H         1 <1>         0.133600 
     57 H           3.790045    8.367174    9.924290 H         1 <1>         0.134700 
     58 H           4.201035    7.105020    7.850825 H         1 <1>         0.155700 
@<TRIPOS>BOND
     1   15   46 1    
     2    1   37 1    
     3    1   39 1    
     4   15   47 1    
     5   15   16 1    
     6   13   15 1    
     7    1   38 1    
     8    2    1 1    
     9   12   45 1    
    10   16   17 1    
    11   35   36 1    
    12   12   13 1    
    13   11   12 1    
    14   13   14 2    
    15    6   41 1    
    16    2   11 ar   
    17    3    2 ar   
    18   33   58 1    
    19    6   42 1    
    20    5    6 1    
    21   24   25 1    
    22   23   24 1    
    23    3   40 1    
    24   10   11 ar   
    25   25   35 ar   
    26   35   34 ar   
    27   27   51 1    
    28   34   33 ar   
    29   33   32 ar   
    30    4    3 ar   
    31   32   57 1    
    32   25   26 ar   
    33   34   29 ar   
    34   32   31 ar   
    35   17   23 ar   
    36   17   18 ar   
    37   10   44 1    
    38    9   10 ar   
    39   26   27 1    
    40   26   28 ar   
    41   28   29 ar   
    42   29   30 ar   
    43    4    9 ar   
    44    4    5 1    
    45   31   30 ar   
    46   31   56 1    
    47   27   53 1    
    48   27   52 1    
    49   23   22 ar   
    50   28   54 1    
    51   30   55 1    
    52    9   43 1    
    53    5    7 2    
    54    5    8 2    
    55   18   48 1    
    56   18   19 ar   
    57   22   50 1    
    58   22   20 ar   
    59   19   20 ar   
    60   19   49 1    
    61   20   21 1    
@<TRIPOS>SUBSTRUCTURE
     1 ****       37 TEMP              0 ****  ****    0 ROOT 
