#	Name:			GSX-2011-BMC-4220-12o
#	Creating user name:	Administrator
#	Creation time:		Sun Jul 05 17:01:37 2020

#	Modifying user name:	Administrator
#	Modification time:	Sun Jul 05 17:04:11 2020

@<TRIPOS>MOLECULE
GSX-2011-BMC-4220-12o
   56    59     1     0     0
SMALL
MULLIKEN_CHARGES
INVALID_CHARGES
Gaussian 16 #p B3LYP/6-31G* opt
@<TRIPOS>ATOM
      1 C          -1.835282   -1.435117   -1.022698 C.3       1 <1>        -0.572400 
      2 C          -3.013704   -0.972810   -0.197834 C.ar      1 <1>         0.153500 
      3 C          -4.303196   -1.390798   -0.519374 C.ar      1 <1>        -0.211500 
      4 C          -5.401538   -0.954237    0.222661 C.ar      1 <1>        -0.124600 
      5 S          -7.038940   -1.514945   -0.224063 S.o2      1 <1>         1.165300 
      6 N          -7.159530   -3.031435    0.540466 N.3       1 <1>        -0.814700 
      7 O          -8.003562   -0.602783    0.399826 O.2       1 <1>        -0.528800 
      8 O          -7.051950   -1.799425   -1.662699 O.2       1 <1>        -0.544100 
      9 C          -5.237131   -0.079467    1.293273 C.ar      1 <1>        -0.165600 
     10 C          -3.958234    0.349429    1.637407 C.ar      1 <1>        -0.155700 
     11 C          -2.849312   -0.096089    0.902699 C.ar      1 <1>         0.295200 
     12 N          -1.536882    0.305511    1.220262 N.am      1 <1>        -0.726500 
     13 C          -1.108932    1.186409    2.177939 C.2       1 <1>         0.584800 
     14 O          -1.806183    1.805563    2.967231 O.2       1 <1>        -0.492200 
     15 C           0.421561    1.307422    2.251586 C.3       1 <1>        -0.146000 
     16 O           1.091791    0.929208    1.053650 O.3       1 <1>        -0.542300 
     17 C           1.160519    1.827159    0.015806 C.ar      1 <1>         0.363300 
     18 C           0.637009    3.121251    0.019837 C.ar      1 <1>        -0.197400 
     19 C           0.772259    3.942504   -1.104403 C.ar      1 <1>        -0.202400 
     20 C           1.428299    3.454573   -2.224088 C.ar      1 <1>         0.387100 
     21 F           1.560426    4.239553   -3.310799 F         1 <1>        -0.292300 
     22 C           1.953883    2.166088   -2.261664 C.ar      1 <1>        -0.260000 
     23 C           1.815926    1.357848   -1.139945 C.ar      1 <1>         0.286700 
     24 O           2.223828    0.038653   -1.221114 O.3       1 <1>        -0.568000 
     25 C           3.214579   -0.432592   -0.398293 C.ar      1 <1>         0.372600 
     26 C           4.225817    0.417483    0.112113 C.ar      1 <1>        -0.168600 
     27 C           5.233941   -0.098648    0.885497 C.ar      1 <1>        -0.194000 
     28 C           5.290905   -1.485579    1.183640 C.ar      1 <1>         0.145300 
     29 C           6.329185   -2.022232    1.980629 C.ar      1 <1>        -0.217800 
     30 C           6.377378   -3.375834    2.268303 C.ar      1 <1>         0.136600 
     31 C           7.434513   -3.905891    3.077792 C.1       1 <1>         0.235300 
     32 N           8.289729   -4.342112    3.735095 N.1       1 <1>        -0.475300 
     33 C           5.370514   -4.242580    1.756653 C.ar      1 <1>        -0.140000 
     34 C           4.353575   -3.745312    0.980099 C.ar      1 <1>        -0.196600 
     35 C           4.275343   -2.360192    0.666171 C.ar      1 <1>         0.112300 
     36 C           3.242360   -1.788572   -0.126485 C.ar      1 <1>        -0.064200 
     37 BR          1.848995   -2.881484   -0.838167 Br        1 <1>        -0.092800 
     38 H          -1.091750   -1.986976   -0.432246 H         1 <1>         0.176500 
     39 H          -1.310220   -0.594959   -1.496788 H         1 <1>         0.176000 
     40 H          -2.167611   -2.100645   -1.823814 H         1 <1>         0.176000 
     41 H          -4.458422   -2.049429   -1.367852 H         1 <1>         0.169400 
     42 H          -7.528563   -3.698364   -0.135489 H         1 <1>         0.356500 
     43 H          -7.776860   -2.960054    1.347477 H         1 <1>         0.352200 
     44 H          -6.101641    0.274133    1.844291 H         1 <1>         0.179300 
     45 H          -3.807479    1.030504    2.463102 H         1 <1>         0.196000 
     46 H          -0.793335   -0.100098    0.664904 H         1 <1>         0.368100 
     47 H           0.676791    2.321922    2.569679 H         1 <1>         0.186100 
     48 H           0.785736    0.612272    3.014344 H         1 <1>         0.203100 
     49 H           0.098736    3.498260    0.881762 H         1 <1>         0.172800 
     50 H           0.362675    4.946450   -1.113723 H         1 <1>         0.163200 
     51 H           2.449061    1.789157   -3.149131 H         1 <1>         0.171800 
     52 H           4.189357    1.475636   -0.123926 H         1 <1>         0.162200 
     53 H           6.009679    0.554898    1.274579 H         1 <1>         0.153000 
     54 H           7.095154   -1.357384    2.368406 H         1 <1>         0.163300 
     55 H           5.417061   -5.301736    1.987268 H         1 <1>         0.163300 
     56 H           3.591987   -4.412754    0.594368 H         1 <1>         0.167500 
@<TRIPOS>BOND
     1   13   14 2    
     2   15   47 1    
     3   15   48 1    
     4   10   45 1    
     5   15   13 1    
     6   16   15 1    
     7   13   12 1    
     8    9   44 1    
     9   18   49 1    
    10   10    9 ar   
    11   11   10 ar   
    12   31   32 3    
    13    9    4 ar   
    14   29   54 1    
    15   12   11 1    
    16   12   46 1    
    17   30   31 1    
    18   17   16 1    
    19   27   53 1    
    20   11    2 ar   
    21   17   18 ar   
    22   18   19 ar   
    23   29   30 ar   
    24   28   29 ar   
    25    6   43 1    
    26   33   30 ar   
    27    5    7 2    
    28   27   28 ar   
    29   26   27 ar   
    30   23   17 ar   
    31   19   50 1    
    32   35   28 ar   
    33    4    5 1    
    34    3    4 ar   
    35   19   20 ar   
    36   26   52 1    
    37   33   55 1    
    38   34   33 ar   
    39   25   26 ar   
    40    5    6 1    
    41    6   42 1    
    42    5    8 2    
    43    2    3 ar   
    44    2    1 1    
    45   35   34 ar   
    46   36   35 ar   
    47   34   56 1    
    48   25   36 ar   
    49   24   25 1    
    50    3   41 1    
    51   23   24 1    
    52   23   22 ar   
    53   36   37 1    
    54    1   38 1    
    55   20   22 ar   
    56   20   21 1    
    57    1   39 1    
    58    1   40 1    
    59   22   51 1    
@<TRIPOS>SUBSTRUCTURE
     1 ****       43 TEMP              0 ****  ****    0 ROOT 
