#	Name:			GSX-2011-BMC-4220-12f
#	Creating user name:	Administrator
#	Creation time:		Sun Jul 05 17:01:36 2020

#	Modifying user name:	Administrator
#	Modification time:	Sun Jul 05 17:04:11 2020

@<TRIPOS>MOLECULE
GSX-2011-BMC-4220-12f
   55    58     1     0     0
SMALL
MULLIKEN_CHARGES
INVALID_CHARGES
Gaussian 16 #p B3LYP/6-31G* opt
@<TRIPOS>ATOM
      1 C          -1.724139   -1.219471   -0.422429 C.3       1 <1>        -0.550500 
      2 C          -3.024359   -0.844523    0.240573 C.ar      1 <1>         0.207900 
      3 C          -4.234835   -1.222060   -0.353607 C.ar      1 <1>        -0.218000 
      4 C          -5.457013   -0.921924    0.245032 C.ar      1 <1>        -0.141400 
      5 S          -6.984382   -1.499894   -0.508477 S.o2      1 <1>         1.182100 
      6 N          -7.312858   -3.019633    0.141969 N.3       1 <1>        -0.784300 
      7 O          -8.061663   -0.630641   -0.041963 O.2       1 <1>        -0.518800 
      8 O          -6.713015   -1.748024   -1.926190 O.2       1 <1>        -0.541300 
      9 C          -5.514265   -0.208051    1.442387 C.ar      1 <1>        -0.163400 
     10 C          -4.320901    0.187539    2.033889 C.ar      1 <1>        -0.149300 
     11 C          -3.083920   -0.124916    1.450651 C.ar      1 <1>         0.247200 
     12 N          -1.917240    0.221386    2.199432 N.am      1 <1>        -0.696500 
     13 C          -0.856252    1.075293    1.984548 C.2       1 <1>         0.565400 
     14 O          -0.032922    1.269200    2.868394 O.2       1 <1>        -0.496200 
     15 C          -0.645051    1.762946    0.632471 C.3       1 <1>        -0.144200 
     16 O          -1.784051    1.978026   -0.178598 O.3       1 <1>        -0.518800 
     17 C          -2.612072    3.026416    0.122588 C.ar      1 <1>         0.339500 
     18 C          -2.568338    3.772842    1.300303 C.ar      1 <1>        -0.204400 
     19 C          -3.466986    4.824340    1.510499 C.ar      1 <1>        -0.142700 
     20 C          -4.415120    5.111386    0.536870 C.ar      1 <1>        -0.075100 
     21 CL         -5.560226    6.421423    0.793526 Cl        1 <1>        -0.020800 
     22 C          -4.483200    4.374775   -0.647155 C.ar      1 <1>        -0.174500 
     23 C          -3.574923    3.341437   -0.859289 C.ar      1 <1>         0.321500 
     24 O          -3.584610    2.545608   -1.977564 O.3       1 <1>        -0.559600 
     25 C          -3.970835    3.067678   -3.195663 C.ar      1 <1>         0.309900 
     26 C          -3.385888    4.266008   -3.675176 C.ar      1 <1>        -0.155000 
     27 C          -3.708281    4.735752   -4.922898 C.ar      1 <1>        -0.200500 
     28 C          -4.617689    4.032952   -5.756775 C.ar      1 <1>         0.151600 
     29 C          -4.957439    4.508664   -7.050550 C.ar      1 <1>        -0.196200 
     30 C          -5.838282    3.818437   -7.851215 C.ar      1 <1>        -0.131500 
     31 C          -6.418276    2.615807   -7.385067 C.ar      1 <1>        -0.133000 
     32 C          -6.111117    2.123486   -6.135962 C.ar      1 <1>        -0.190100 
     33 C          -5.205622    2.810929   -5.284451 C.ar      1 <1>         0.090100 
     34 C          -4.856554    2.353537   -3.977545 C.ar      1 <1>        -0.046700 
     35 BR         -5.597399    0.742263   -3.277670 Br        1 <1>        -0.079000 
     36 H          -0.927971   -1.375341    0.312255 H         1 <1>         0.164100 
     37 H          -1.837295   -2.138823   -1.004854 H         1 <1>         0.165100 
     38 H          -1.404278   -0.430803   -1.113408 H         1 <1>         0.198100 
     39 H          -4.221919   -1.755149   -1.299108 H         1 <1>         0.176600 
     40 H          -7.496471   -2.985452    1.141535 H         1 <1>         0.348900 
     41 H          -6.607386   -3.709855   -0.103037 H         1 <1>         0.349000 
     42 H          -6.470914    0.054204    1.881327 H         1 <1>         0.181000 
     43 H          -4.335707    0.760083    2.956948 H         1 <1>         0.150400 
     44 H          -1.940461   -0.050780    3.177551 H         1 <1>         0.343100 
     45 H          -0.116309    2.698188    0.844204 H         1 <1>         0.187200 
     46 H           0.020400    1.129743    0.037386 H         1 <1>         0.191400 
     47 H          -1.833219    3.551156    2.066281 H         1 <1>         0.166300 
     48 H          -3.423502    5.405842    2.424528 H         1 <1>         0.157400 
     49 H          -5.231908    4.599315   -1.397290 H         1 <1>         0.180400 
     50 H          -2.681418    4.794137   -3.041040 H         1 <1>         0.151400 
     51 H          -3.258730    5.653874   -5.292127 H         1 <1>         0.140000 
     52 H          -4.504760    5.434819   -7.396733 H         1 <1>         0.132900 
     53 H          -6.089759    4.194009   -8.839092 H         1 <1>         0.133500 
     54 H          -7.114602    2.073554   -8.018918 H         1 <1>         0.136500 
     55 H          -6.560415    1.202024   -5.783798 H         1 <1>         0.163100 
@<TRIPOS>BOND
     1    1   37 1    
     2    1   36 1    
     3   15   46 1    
     4    1   38 1    
     5    2    1 1    
     6   15   45 1    
     7   13   15 1    
     8   15   16 1    
     9   13   14 2    
    10   12   13 1    
    11   16   17 1    
    12    3   39 1    
    13    3    2 ar   
    14    2   11 ar   
    15   12   44 1    
    16   11   12 1    
    17   27   51 1    
    18   29   52 1    
    19   26   50 1    
    20   26   27 ar   
    21   27   28 ar   
    22   28   29 ar   
    23   29   30 ar   
    24    4    3 ar   
    25   25   26 ar   
    26   30   53 1    
    27   33   28 ar   
    28   31   30 ar   
    29   10   11 ar   
    30   24   25 1    
    31   23   24 1    
    32   25   34 ar   
    33   34   33 ar   
    34   33   32 ar   
    35   32   31 ar   
    36   31   54 1    
    37   34   35 1    
    38   32   55 1    
    39   17   23 ar   
    40   17   18 ar   
    41   18   47 1    
    42   23   22 ar   
    43    6   41 1    
    44    5    8 2    
    45   18   19 ar   
    46    5    4 1    
    47    4    9 ar   
    48    9   10 ar   
    49   10   43 1    
    50    6    5 1    
    51    6   40 1    
    52    5    7 2    
    53    9   42 1    
    54   22   49 1    
    55   22   20 ar   
    56   19   20 ar   
    57   19   48 1    
    58   20   21 1    
@<TRIPOS>SUBSTRUCTURE
     1 ****       41 TEMP              0 ****  ****    0 ROOT 
