#	Name:			GSX-2011-BMC-4220-12i
#	Creating user name:	Administrator
#	Creation time:		Sun Jul 05 17:01:37 2020

#	Modifying user name:	Administrator
#	Modification time:	Sun Jul 05 17:04:11 2020

@<TRIPOS>MOLECULE
GSX-2011-BMC-4220-12i
   58    61     1     0     0
SMALL
MULLIKEN_CHARGES
INVALID_CHARGES
Gaussian 16 #p B3LYP/6-31G* opt
@<TRIPOS>ATOM
      1 C          -1.846328   -1.378537   -1.065368 C.3       1 <1>        -0.567600 
      2 C          -3.017431   -0.958578   -0.207522 C.ar      1 <1>         0.153900 
      3 C          -4.298111   -1.426682   -0.491459 C.ar      1 <1>        -0.211000 
      4 C          -5.385910   -1.053511    0.299260 C.ar      1 <1>        -0.126300 
      5 S          -7.012229   -1.675437   -0.100349 S.o2      1 <1>         1.164200 
      6 N          -7.550539   -0.615296   -1.319816 N.3       1 <1>        -0.814400 
      7 O          -6.861618   -2.977832   -0.757772 O.2       1 <1>        -0.545500 
      8 O          -7.858602   -1.494397    1.084182 O.2       1 <1>        -0.528300 
      9 C          -5.214249   -0.215264    1.397881 C.ar      1 <1>        -0.165400 
     10 C          -3.944385    0.268206    1.700129 C.ar      1 <1>        -0.156300 
     11 C          -2.847979   -0.094494    0.902700 C.ar      1 <1>         0.298800 
     12 N          -1.548215    0.372580    1.169516 N.am      1 <1>        -0.726800 
     13 C          -1.105955    1.173273    2.191066 C.2       1 <1>         0.582600 
     14 O          -1.786002    1.660754    3.081568 O.2       1 <1>        -0.495700 
     15 C           0.394737    1.492441    2.102667 C.3       1 <1>        -0.143600 
     16 O           1.141642    0.583479    1.305901 O.3       1 <1>        -0.535800 
     17 C           1.591062   -0.581277    1.894719 C.ar      1 <1>         0.318400 
     18 C           1.176278   -1.063760    3.134189 C.ar      1 <1>        -0.196700 
     19 C           1.696668   -2.258233    3.647116 C.ar      1 <1>        -0.213300 
     20 C           2.628460   -2.949972    2.893275 C.ar      1 <1>         0.388600 
     21 F           3.146635   -4.101137    3.370902 F         1 <1>        -0.298600 
     22 C           3.059621   -2.501226    1.647117 C.ar      1 <1>        -0.270800 
     23 C           2.533213   -1.315592    1.140091 C.ar      1 <1>         0.327400 
     24 O           2.895532   -0.764910   -0.062232 O.3       1 <1>        -0.579300 
     25 C           3.629898   -1.520170   -0.974409 C.ar      1 <1>         0.247500 
     26 C           2.983334   -2.606255   -1.614732 C.ar      1 <1>        -0.149000 
     27 C           3.646110   -3.321815   -2.578464 C.ar      1 <1>        -0.208200 
     28 C           4.975389   -2.979062   -2.945993 C.ar      1 <1>         0.155200 
     29 C           5.678996   -3.705748   -3.941863 C.ar      1 <1>        -0.196700 
     30 C           6.965438   -3.364273   -4.293105 C.ar      1 <1>        -0.133300 
     31 C           7.601732   -2.273791   -3.657209 C.ar      1 <1>        -0.131300 
     32 C           6.944712   -1.547468   -2.687201 C.ar      1 <1>        -0.197300 
     33 C           5.616127   -1.871499   -2.298211 C.ar      1 <1>         0.058600 
     34 C           4.918384   -1.130468   -1.285625 C.ar      1 <1>         0.100400 
     35 C           5.568170    0.041933   -0.592725 C.3       1 <1>        -0.542600 
     36 H          -2.174000   -2.058392   -1.855952 H         1 <1>         0.176900 
     37 H          -1.077035   -1.903380   -0.482344 H         1 <1>         0.172600 
     38 H          -1.362036   -0.521943   -1.554197 H         1 <1>         0.172300 
     39 H          -4.450855   -2.102165   -1.327143 H         1 <1>         0.168200 
     40 H          -7.963306   -1.175472   -2.063898 H         1 <1>         0.355900 
     41 H          -8.238516    0.029753   -0.934382 H         1 <1>         0.351300 
     42 H          -6.063173    0.045583    2.020253 H         1 <1>         0.178900 
     43 H          -3.787527    0.918269    2.549363 H         1 <1>         0.196900 
     44 H          -0.813668    0.068727    0.541911 H         1 <1>         0.366800 
     45 H           0.790959    1.574040    3.119369 H         1 <1>         0.185000 
     46 H           0.504204    2.467284    1.615667 H         1 <1>         0.197200 
     47 H           0.435950   -0.524414    3.714468 H         1 <1>         0.165400 
     48 H           1.378036   -2.643364    4.608935 H         1 <1>         0.153300 
     49 H           3.795135   -3.070412    1.092143 H         1 <1>         0.170900 
     50 H           1.963865   -2.849252   -1.331579 H         1 <1>         0.141700 
     51 H           3.158100   -4.155228   -3.077167 H         1 <1>         0.138300 
     52 H           5.179315   -4.542558   -4.424398 H         1 <1>         0.133400 
     53 H           7.493164   -3.929002   -5.056671 H         1 <1>         0.133900 
     54 H           8.617432   -2.006497   -3.936152 H         1 <1>         0.133500 
     55 H           7.450687   -0.714294   -2.210957 H         1 <1>         0.133400 
     56 H           6.476851   -0.262895   -0.059150 H         1 <1>         0.165200 
     57 H           4.885062    0.495018    0.126447 H         1 <1>         0.180900 
     58 H           5.860647    0.815733   -1.313013 H         1 <1>         0.166400 
@<TRIPOS>BOND
     1   15   46 1    
     2   35   58 1    
     3   15   45 1    
     4   13   15 1    
     5   15   16 1    
     6   35   57 1    
     7   35   56 1    
     8   34   35 1    
     9   32   55 1    
    10   13   14 2    
    11   12   13 1    
    12    6   41 1    
    13   16   17 1    
    14    1   38 1    
    15   31   54 1    
    16   12   44 1    
    17   11   12 1    
    18   32   31 ar   
    19   33   32 ar   
    20   10   43 1    
    21    6   40 1    
    22    5    6 1    
    23   34   33 ar   
    24   25   34 ar   
    25   31   30 ar   
    26   10   11 ar   
    27    9   10 ar   
    28    2   11 ar   
    29   24   25 1    
    30   23   24 1    
    31   33   28 ar   
    32    9   42 1    
    33    4    9 ar   
    34    2    1 1    
    35    3    2 ar   
    36   25   26 ar   
    37    1   36 1    
    38    1   37 1    
    39   17   23 ar   
    40   17   18 ar   
    41    4    3 ar   
    42    4    5 1    
    43   30   53 1    
    44   30   29 ar   
    45    3   39 1    
    46   28   29 ar   
    47   28   27 ar   
    48   23   22 ar   
    49   26   27 ar   
    50   26   50 1    
    51    5    8 2    
    52    5    7 2    
    53   29   52 1    
    54   18   47 1    
    55   27   51 1    
    56   18   19 ar   
    57   22   49 1    
    58   22   20 ar   
    59   19   20 ar   
    60   19   48 1    
    61   20   21 1    
@<TRIPOS>SUBSTRUCTURE
     1 ****       43 TEMP              0 ****  ****    0 ROOT 
