#	Name:			GSX-2011-BMC-4220-12n
#	Creating user name:	Administrator
#	Creation time:		Sun Jul 05 17:01:37 2020

#	Modifying user name:	Administrator
#	Modification time:	Sun Jul 05 17:04:11 2020

@<TRIPOS>MOLECULE
GSX-2011-BMC-4220-12n
   56    59     1     0     0
SMALL
MULLIKEN_CHARGES
INVALID_CHARGES
Gaussian 16 #p B3LYP/6-31G* opt
@<TRIPOS>ATOM
      1 C          -1.843491   -1.391867   -1.055006 C.3       1 <1>        -0.568300 
      2 C          -3.014722   -0.964078   -0.200064 C.ar      1 <1>         0.154300 
      3 C          -4.294718   -1.435484   -0.485023 C.ar      1 <1>        -0.212700 
      4 C          -5.385304   -1.055859    0.297050 C.ar      1 <1>        -0.122500 
      5 S          -7.011776   -1.683321   -0.103957 S.o2      1 <1>         1.168100 
      6 N          -7.587705   -0.581069   -1.264785 N.3       1 <1>        -0.815200 
      7 O          -6.844058   -2.957276   -0.810336 O.2       1 <1>        -0.541600 
      8 O          -7.840737   -1.555173    1.098569 O.2       1 <1>        -0.527600 
      9 C          -5.217790   -0.208218    1.388726 C.ar      1 <1>        -0.163600 
     10 C          -3.949551    0.278717    1.692448 C.ar      1 <1>        -0.153000 
     11 C          -2.850483   -0.091321    0.903078 C.ar      1 <1>         0.294600 
     12 N          -1.545677    0.378126    1.171428 N.am      1 <1>        -0.732000 
     13 C          -1.107691    1.208085    2.179378 C.2       1 <1>         0.603700 
     14 O          -1.813652    1.732036    3.022172 O.2       1 <1>        -0.474300 
     15 C           0.424538    1.403930    2.153004 C.3       1 <1>        -0.146800 
     16 O           0.859100    2.373974    3.070278 O.3       1 <1>        -0.505300 
     17 C           0.586691    3.692875    2.831807 C.ar      1 <1>         0.380800 
     18 C          -0.004044    4.204238    1.675105 C.ar      1 <1>        -0.187400 
     19 C          -0.201679    5.578827    1.522877 C.ar      1 <1>        -0.135700 
     20 C           0.188998    6.443833    2.538877 C.ar      1 <1>        -0.076900 
     21 CL         -0.053251    8.174466    2.356703 Cl        1 <1>        -0.016000 
     22 C           0.768116    5.953127    3.708920 C.ar      1 <1>        -0.170500 
     23 C           0.961972    4.583955    3.856241 C.ar      1 <1>         0.294500 
     24 O           1.639045    4.145661    4.974182 O.3       1 <1>        -0.575100 
     25 C           1.036331    3.351939    5.927662 C.ar      1 <1>         0.376100 
     26 C          -0.334632    2.995854    5.890147 C.ar      1 <1>        -0.166800 
     27 C          -0.857315    2.223533    6.900530 C.ar      1 <1>        -0.208400 
     28 C          -0.055504    1.777492    7.984704 C.ar      1 <1>         0.140500 
     29 C          -0.579617    0.983215    9.031535 C.ar      1 <1>        -0.214500 
     30 C           0.230480    0.562186   10.074433 C.ar      1 <1>         0.126900 
     31 C          -0.310582   -0.243055   11.128755 C.1       1 <1>         0.231900 
     32 N          -0.742211   -0.898258   11.988374 N.1       1 <1>        -0.484100 
     33 C           1.608823    0.929227   10.101309 C.ar      1 <1>        -0.144700 
     34 C           2.136355    1.698832    9.095320 C.ar      1 <1>        -0.196900 
     35 C           1.330704    2.145961    8.009742 C.ar      1 <1>         0.148800 
     36 C           1.851746    2.938342    6.961301 C.ar      1 <1>        -0.263500 
     37 H          -1.352932   -0.538802   -1.544929 H         1 <1>         0.164800 
     38 H          -1.079807   -1.928871   -0.474897 H         1 <1>         0.168100 
     39 H          -2.173907   -2.067691   -1.847569 H         1 <1>         0.185600 
     40 H          -4.444275   -2.119095   -1.314515 H         1 <1>         0.172300 
     41 H          -7.931532   -1.108590   -2.065384 H         1 <1>         0.357900 
     42 H          -8.331656   -0.015703   -0.859384 H         1 <1>         0.354900 
     43 H          -6.068251    0.057505    2.007015 H         1 <1>         0.181900 
     44 H          -3.799720    0.937032    2.535929 H         1 <1>         0.197500 
     45 H          -0.830231    0.029603    0.547752 H         1 <1>         0.342600 
     46 H           0.772865    1.626129    1.132912 H         1 <1>         0.161300 
     47 H           0.904659    0.472846    2.472840 H         1 <1>         0.201300 
     48 H          -0.324571    3.542466    0.878622 H         1 <1>         0.141300 
     49 H          -0.659687    5.966415    0.619683 H         1 <1>         0.159400 
     50 H           1.079188    6.616263    4.507688 H         1 <1>         0.171600 
     51 H          -0.960362    3.307461    5.062874 H         1 <1>         0.176900 
     52 H          -1.906580    1.941947    6.870862 H         1 <1>         0.148100 
     53 H          -1.628787    0.702610    9.013788 H         1 <1>         0.157600 
     54 H           2.228667    0.591917   10.925599 H         1 <1>         0.154400 
     55 H           3.186604    1.977715    9.117755 H         1 <1>         0.141500 
     56 H           2.897234    3.231092    6.961067 H         1 <1>         0.144600 
@<TRIPOS>BOND
     1    6   42 1    
     2    5    8 2    
     3   20   21 1    
     4    9   43 1    
     5    6   41 1    
     6    5    6 1    
     7   27   52 1    
     8   29   53 1    
     9   22   50 1    
    10   26   51 1    
    11    4    5 1    
    12    5    7 2    
    13   26   27 ar   
    14   27   28 ar   
    15   31   32 3    
    16   10    9 ar   
    17    9    4 ar   
    18   22   20 ar   
    19   19   20 ar   
    20   10   44 1    
    21   28   29 ar   
    22   29   30 ar   
    23   30   31 1    
    24   23   22 ar   
    25   19   49 1    
    26   25   26 ar   
    27   35   28 ar   
    28   18   19 ar   
    29   11   10 ar   
    30   33   30 ar   
    31    3    4 ar   
    32   13   14 2    
    33   23   24 1    
    34   17   23 ar   
    35   24   25 1    
    36   25   36 ar   
    37   36   35 ar   
    38   35   34 ar   
    39   17   18 ar   
    40   18   48 1    
    41   34   33 ar   
    42   33   54 1    
    43   36   56 1    
    44   16   17 1    
    45   34   55 1    
    46   12   11 1    
    47   11    2 ar   
    48    3   40 1    
    49    2    3 ar   
    50   13   12 1    
    51   15   13 1    
    52   12   45 1    
    53   16   15 1    
    54    2    1 1    
    55   15   46 1    
    56   15   47 1    
    57    1   37 1    
    58    1   39 1    
    59    1   38 1    
@<TRIPOS>SUBSTRUCTURE
     1 ****       32 TEMP              0 ****  ****    0 ROOT 
