#	Name:			GSX-2011-BMC-4220-12c
#	Creating user name:	Administrator
#	Creation time:		Sun Jul 05 17:01:36 2020

#	Modifying user name:	Administrator
#	Modification time:	Sun Jul 05 17:04:11 2020

@<TRIPOS>MOLECULE
GSX-2011-BMC-4220-12c
   55    58     1     0     0
SMALL
MULLIKEN_CHARGES
INVALID_CHARGES
Gaussian 16 #p B3LYP/6-31G* opt
@<TRIPOS>ATOM
      1 C          -1.817269   -1.447942   -1.010936 C.3       1 <1>        -0.567000 
      2 C          -2.995121   -1.003110   -0.174753 C.ar      1 <1>         0.156400 
      3 C          -4.277487   -1.466458   -0.466378 C.ar      1 <1>        -0.228700 
      4 C          -5.374411   -1.072332    0.301845 C.ar      1 <1>        -0.142200 
      5 S          -7.013965   -1.665201   -0.128047 S.o2      1 <1>         1.162400 
      6 N          -7.701685   -0.524251   -1.164352 N.3       1 <1>        -0.785200 
      7 O          -6.844448   -2.871362   -0.937410 O.2       1 <1>        -0.528500 
      8 O          -7.826997   -1.625124    1.086056 O.2       1 <1>        -0.526000 
      9 C          -5.206706   -0.215471    1.388989 C.ar      1 <1>        -0.172800 
     10 C          -3.937587    0.263051    1.699244 C.ar      1 <1>        -0.154300 
     11 C          -2.833613   -0.121504    0.921530 C.ar      1 <1>         0.295100 
     12 N          -1.531649    0.334264    1.202675 N.am      1 <1>        -0.725100 
     13 C          -1.114144    1.235859    2.147479 C.2       1 <1>         0.583900 
     14 O          -1.816718    1.817550    2.960081 O.2       1 <1>        -0.493700 
     15 C           0.408986    1.439258    2.160657 C.3       1 <1>        -0.147100 
     16 O           1.050522    1.109453    0.932994 O.3       1 <1>        -0.532600 
     17 C           1.043449    2.035156   -0.080229 C.ar      1 <1>         0.354300 
     18 C           0.327227    3.233806   -0.073374 C.ar      1 <1>        -0.198500 
     19 C           0.383641    4.097633   -1.171538 C.ar      1 <1>        -0.137700 
     20 C           1.154309    3.755737   -2.277144 C.ar      1 <1>        -0.077600 
     21 CL          1.224005    4.833348   -3.662338 Cl        1 <1>        -0.012200 
     22 C           1.875075    2.560522   -2.303583 C.ar      1 <1>        -0.172500 
     23 C           1.819136    1.704764   -1.209622 C.ar      1 <1>         0.298100 
     24 O           2.451031    0.482660   -1.283664 O.3       1 <1>        -0.585200 
     25 C           3.606281    0.258745   -0.551315 C.ar      1 <1>         0.366000 
     26 C           4.032686   -1.092195   -0.527349 C.ar      1 <1>        -0.170300 
     27 C           5.180254   -1.432008    0.145471 C.ar      1 <1>        -0.199400 
     28 C           5.954543   -0.451241    0.824285 C.ar      1 <1>         0.139600 
     29 C           7.142804   -0.775323    1.529840 C.ar      1 <1>        -0.192400 
     30 C           7.870237    0.200675    2.173950 C.ar      1 <1>        -0.137000 
     31 C           7.436859    1.548255    2.138046 C.ar      1 <1>        -0.134700 
     32 C           6.287813    1.894979    1.462436 C.ar      1 <1>        -0.193500 
     33 C           5.514070    0.911715    0.788996 C.ar      1 <1>         0.131500 
     34 C           4.325389    1.244177    0.083773 C.ar      1 <1>        -0.257900 
     35 H          -1.073263   -1.996945   -0.417340 H         1 <1>         0.173300 
     36 H          -1.300882   -0.601787   -1.484080 H         1 <1>         0.174600 
     37 H          -2.145068   -2.116248   -1.811165 H         1 <1>         0.179300 
     38 H          -4.425250   -2.161379   -1.287256 H         1 <1>         0.173300 
     39 H          -7.192857   -0.440232   -2.040904 H         1 <1>         0.346400 
     40 H          -7.842751    0.375235   -0.710897 H         1 <1>         0.347700 
     41 H          -6.058242    0.056869    2.004104 H         1 <1>         0.178300 
     42 H          -3.786378    0.925004    2.540273 H         1 <1>         0.197600 
     43 H          -0.788336   -0.024061    0.615888 H         1 <1>         0.366400 
     44 H           0.619084    2.465992    2.473508 H         1 <1>         0.187800 
     45 H           0.842102    0.761295    2.902868 H         1 <1>         0.205000 
     46 H          -0.296423    3.503257    0.771686 H         1 <1>         0.171200 
     47 H          -0.178914    5.024544   -1.162147 H         1 <1>         0.164600 
     48 H           2.474982    2.280313   -3.161724 H         1 <1>         0.173500 
     49 H           3.435031   -1.833654   -1.048012 H         1 <1>         0.142000 
     50 H           5.509917   -2.467939    0.165510 H         1 <1>         0.137300 
     51 H           7.470640   -1.812151    1.552254 H         1 <1>         0.131400 
     52 H           8.778457   -0.059096    2.710554 H         1 <1>         0.131700 
     53 H           8.017544    2.312375    2.647731 H         1 <1>         0.132300 
     54 H           5.957367    2.930708    1.435093 H         1 <1>         0.129500 
     55 H           3.999687    2.278956    0.049888 H         1 <1>         0.141300 
@<TRIPOS>BOND
     1    1   37 1    
     2   26   49 1    
     3   27   50 1    
     4    3   38 1    
     5   26   27 ar   
     6   25   26 ar   
     7    5    7 2    
     8   22   48 1    
     9   27   28 ar   
    10    1   35 1    
    11    1   36 1    
    12    2    1 1    
    13   24   25 1    
    14   23   24 1    
    15    6   39 1    
    16   29   51 1    
    17   25   34 ar   
    18    2    3 ar   
    19    3    4 ar   
    20   23   22 ar   
    21   22   20 ar   
    22   28   29 ar   
    23   33   28 ar   
    24   11    2 ar   
    25   29   30 ar   
    26   20   21 1    
    27   17   23 ar   
    28    5    6 1    
    29    6   40 1    
    30    4    5 1    
    31    5    8 2    
    32   34   33 ar   
    33   34   55 1    
    34   19   20 ar   
    35    9    4 ar   
    36   33   32 ar   
    37   12   43 1    
    38   30   52 1    
    39   31   30 ar   
    40   16   17 1    
    41   17   18 ar   
    42   12   11 1    
    43   11   10 ar   
    44   15   16 1    
    45   13   12 1    
    46   32   31 ar   
    47   32   54 1    
    48   18   19 ar   
    49   19   47 1    
    50   31   53 1    
    51   10    9 ar   
    52    9   41 1    
    53   18   46 1    
    54   10   42 1    
    55   15   13 1    
    56   15   45 1    
    57   15   44 1    
    58   13   14 2    
@<TRIPOS>SUBSTRUCTURE
     1 ****       48 TEMP              0 ****  ****    0 ROOT 
