#	Name:			GSX-2011-BMC-4220-12d
#	Creating user name:	Administrator
#	Creation time:		Sun Jul 05 17:01:36 2020

#	Modifying user name:	Administrator
#	Modification time:	Sun Jul 05 17:04:11 2020

@<TRIPOS>MOLECULE
GSX-2011-BMC-4220-12d
   55    58     1     0     0
SMALL
MULLIKEN_CHARGES
INVALID_CHARGES
Gaussian 16 #p B3LYP/6-31G* opt
@<TRIPOS>ATOM
      1 C          -1.830083   -1.482069   -0.986414 C.3       1 <1>        -0.567700 
      2 C          -3.013340   -0.982201   -0.190239 C.ar      1 <1>         0.154300 
      3 C          -4.301853   -1.403423   -0.510409 C.ar      1 <1>        -0.211000 
      4 C          -5.402635   -0.947210    0.215776 C.ar      1 <1>        -0.125600 
      5 S          -7.038717   -1.514614   -0.226045 S.o2      1 <1>         1.165100 
      6 N          -7.161049   -3.017401    0.565016 N.3       1 <1>        -0.814600 
      7 O          -8.004562   -0.589656    0.376732 O.2       1 <1>        -0.527900 
      8 O          -7.047741   -1.826762   -1.658951 O.2       1 <1>        -0.544700 
      9 C          -5.240180   -0.049943    1.268072 C.ar      1 <1>        -0.165100 
     10 C          -3.962261    0.385283    1.607630 C.ar      1 <1>        -0.155800 
     11 C          -2.850109   -0.078337    0.888681 C.ar      1 <1>         0.297700 
     12 N          -1.540789    0.337528    1.195115 N.am      1 <1>        -0.725500 
     13 C          -1.104239    1.150356    2.209396 C.2       1 <1>         0.583800 
     14 O          -1.796807    1.695181    3.055688 O.2       1 <1>        -0.494300 
     15 C           0.411549    1.400496    2.176634 C.3       1 <1>        -0.146800 
     16 O           1.155070    0.409619    1.476229 O.3       1 <1>        -0.531900 
     17 C           1.510292   -0.734713    2.151545 C.ar      1 <1>         0.322700 
     18 C           1.009955   -1.120083    3.394401 C.ar      1 <1>        -0.192800 
     19 C           1.438247   -2.306437    3.999465 C.ar      1 <1>        -0.142100 
     20 C           2.372311   -3.100019    3.346659 C.ar      1 <1>        -0.073600 
     21 CL          2.929471   -4.589629    4.095572 Cl        1 <1>        -0.016800 
     22 C           2.886519   -2.737541    2.100091 C.ar      1 <1>        -0.185700 
     23 C           2.447951   -1.561706    1.496432 C.ar      1 <1>         0.318500 
     24 O           2.922515   -1.100514    0.293343 O.3       1 <1>        -0.569400 
     25 C           3.470193   -1.981490   -0.625619 C.ar      1 <1>         0.338700 
     26 C           2.728301   -3.097158   -1.090528 C.ar      1 <1>        -0.161900 
     27 C           3.257215   -3.903369   -2.070203 C.ar      1 <1>        -0.197100 
     28 C           4.534730   -3.633853   -2.633302 C.ar      1 <1>         0.142700 
     29 C           5.095905   -4.453957   -3.647246 C.ar      1 <1>        -0.219300 
     30 C           6.332835   -4.152044   -4.163813 C.ar      1 <1>         0.078600 
     31 BR          7.089292   -5.255843   -5.529308 Br        1 <1>        -0.124200 
     32 C           7.072050   -3.035170   -3.709958 C.ar      1 <1>        -0.151300 
     33 C           6.544278   -2.228351   -2.728368 C.ar      1 <1>        -0.190100 
     34 C           5.269564   -2.497906   -2.162012 C.ar      1 <1>         0.138800 
     35 C           4.708722   -1.684317   -1.143311 C.ar      1 <1>        -0.248300 
     36 H          -1.108408   -2.020330   -0.356530 H         1 <1>         0.168400 
     37 H          -2.157370   -2.172994   -1.767572 H         1 <1>         0.178300 
     38 H          -1.289318   -0.665017   -1.483413 H         1 <1>         0.173800 
     39 H          -4.454245   -2.083180   -1.342654 H         1 <1>         0.168900 
     40 H          -7.545945   -3.691163   -0.095180 H         1 <1>         0.356500 
     41 H          -7.766112   -2.928363    1.379611 H         1 <1>         0.352000 
     42 H          -6.106353    0.318064    1.807103 H         1 <1>         0.179800 
     43 H          -3.813422    1.082810    2.419775 H         1 <1>         0.197100 
     44 H          -0.798024   -0.022120    0.608278 H         1 <1>         0.364500 
     45 H           0.762764    1.529296    3.204607 H         1 <1>         0.187500 
     46 H           0.591364    2.334906    1.634809 H         1 <1>         0.200500 
     47 H           0.270766   -0.511711    3.903427 H         1 <1>         0.169400 
     48 H           1.040789   -2.602442    4.963471 H         1 <1>         0.162300 
     49 H           3.625018   -3.358540    1.607717 H         1 <1>         0.177600 
     50 H           1.748505   -3.299854   -0.670129 H         1 <1>         0.149600 
     51 H           2.693110   -4.758721   -2.432922 H         1 <1>         0.146300 
     52 H           4.542874   -5.315172   -4.008156 H         1 <1>         0.156300 
     53 H           8.045554   -2.826292   -4.139633 H         1 <1>         0.158400 
     54 H           7.106926   -1.368217   -2.374864 H         1 <1>         0.145700 
     55 H           5.248432   -0.818192   -0.772853 H         1 <1>         0.149500 
@<TRIPOS>BOND
     1   15   46 1    
     2   15   45 1    
     3   13   15 1    
     4   15   16 1    
     5   33   54 1    
     6   13   14 2    
     7   35   55 1    
     8   12   13 1    
     9   16   17 1    
    10   32   53 1    
    11   33   32 ar   
    12   34   33 ar   
    13   12   44 1    
    14   11   12 1    
    15    1   38 1    
    16   10   43 1    
    17   35   34 ar   
    18   25   35 ar   
    19   32   30 ar   
    20   24   25 1    
    21   23   24 1    
    22   11   10 ar   
    23   10    9 ar   
    24    2   11 ar   
    25   34   28 ar   
    26   25   26 ar   
    27   17   23 ar   
    28   17   18 ar   
    29    9   42 1    
    30    9    4 ar   
    31    2    1 1    
    32    2    3 ar   
    33    1   37 1    
    34    1   36 1    
    35   30   31 1    
    36   30   29 ar   
    37   23   22 ar   
    38   18   47 1    
    39    4    3 ar   
    40    4    5 1    
    41    3   39 1    
    42   28   29 ar   
    43   28   27 ar   
    44    5    7 2    
    45   18   19 ar   
    46   26   27 ar   
    47   26   50 1    
    48   29   52 1    
    49    5    8 2    
    50    5    6 1    
    51   27   51 1    
    52   22   49 1    
    53   22   20 ar   
    54   19   20 ar   
    55   19   48 1    
    56   20   21 1    
    57    6   41 1    
    58    6   40 1    
@<TRIPOS>SUBSTRUCTURE
     1 ****       43 TEMP              0 ****  ****    0 ROOT 
