#	Name:			GSX-2011-BMC-4220-12g
#	Creating user name:	Administrator
#	Creation time:		Sun Jul 05 17:01:36 2020

#	Modifying user name:	Administrator
#	Modification time:	Sun Jul 05 17:04:11 2020

@<TRIPOS>MOLECULE
GSX-2011-BMC-4220-12g
   58    61     1     0     0
SMALL
MULLIKEN_CHARGES
INVALID_CHARGES
Gaussian 16 #p B3LYP/6-31G* opt
@<TRIPOS>ATOM
      1 C          -1.834179   -1.449631   -1.010504 C.3       1 <1>        -0.566700 
      2 C          -3.014890   -0.973533   -0.195975 C.ar      1 <1>         0.153800 
      3 C          -4.303686   -1.391637   -0.518258 C.ar      1 <1>        -0.211000 
      4 C          -5.402470   -0.951874    0.221342 C.ar      1 <1>        -0.126300 
      5 S          -7.038884   -1.513392   -0.224307 S.o2      1 <1>         1.164100 
      6 N          -7.151600   -3.035999    0.530752 N.3       1 <1>        -0.814400 
      7 O          -8.004759   -0.606177    0.405394 O.2       1 <1>        -0.528400 
      8 O          -7.057366   -1.792631   -1.663958 O.2       1 <1>        -0.545400 
      9 C          -5.237549   -0.074690    1.290131 C.ar      1 <1>        -0.165500 
     10 C          -3.958873    0.355031    1.633684 C.ar      1 <1>        -0.156300 
     11 C          -2.848657   -0.091879    0.900892 C.ar      1 <1>         0.298400 
     12 N          -1.538839    0.313942    1.214686 N.am      1 <1>        -0.726700 
     13 C          -1.107951    1.184296    2.182677 C.2       1 <1>         0.583200 
     14 O          -1.804591    1.775691    2.993840 O.2       1 <1>        -0.495900 
     15 C           0.421477    1.329712    2.226286 C.3       1 <1>        -0.144000 
     16 O           1.080192    0.950209    1.026295 O.3       1 <1>        -0.536000 
     17 C           1.160015    1.876252    0.005721 C.ar      1 <1>         0.321000 
     18 C           0.484752    3.094280   -0.028191 C.ar      1 <1>        -0.197500 
     19 C           0.642577    3.969414   -1.110191 C.ar      1 <1>        -0.213200 
     20 C           1.475345    3.592036   -2.148544 C.ar      1 <1>         0.388200 
     21 F           1.641394    4.419968   -3.201628 F         1 <1>        -0.298400 
     22 C           2.152277    2.374206   -2.155924 C.ar      1 <1>        -0.273600 
     23 C           1.992942    1.510571   -1.075415 C.ar      1 <1>         0.329000 
     24 O           2.588067    0.277989   -0.981106 O.3       1 <1>        -0.578800 
     25 C           3.570332   -0.080505   -1.902725 C.ar      1 <1>         0.267300 
     26 C           3.216475   -0.842672   -2.988629 C.ar      1 <1>        -0.239900 
     27 C           4.205643   -1.297417   -3.899794 C.ar      1 <1>         0.129600 
     28 C           3.888477   -2.084975   -5.038154 C.ar      1 <1>        -0.189800 
     29 C           4.877647   -2.505081   -5.898961 C.ar      1 <1>        -0.136400 
     30 C           6.229762   -2.157271   -5.659395 C.ar      1 <1>        -0.135000 
     31 C           6.567700   -1.395651   -4.563254 C.ar      1 <1>        -0.194800 
     32 C           5.571868   -0.944705   -3.656176 C.ar      1 <1>         0.162600 
     33 C           5.885732   -0.161911   -2.512816 C.ar      1 <1>        -0.289500 
     34 C           4.922211    0.279204   -1.629382 C.ar      1 <1>         0.179600 
     35 C           5.261956    1.092603   -0.406641 C.3       1 <1>        -0.534000 
     36 H          -2.166404   -2.103149   -1.821289 H         1 <1>         0.176200 
     37 H          -1.117434   -2.021727   -0.405502 H         1 <1>         0.171500 
     38 H          -1.286023   -0.615137   -1.468642 H         1 <1>         0.174600 
     39 H          -4.458392   -2.054312   -1.363800 H         1 <1>         0.168000 
     40 H          -7.549424   -3.691144   -0.140413 H         1 <1>         0.355800 
     41 H          -7.744168   -2.966380    1.356434 H         1 <1>         0.351200 
     42 H          -6.102128    0.280522    1.840035 H         1 <1>         0.178800 
     43 H          -3.807420    1.037453    2.458187 H         1 <1>         0.196600 
     44 H          -0.793237   -0.059235    0.639630 H         1 <1>         0.367500 
     45 H           0.803876    0.651253    2.996262 H         1 <1>         0.196800 
     46 H           0.662869    2.353938    2.526515 H         1 <1>         0.184300 
     47 H          -0.177754    3.378931    0.781397 H         1 <1>         0.165700 
     48 H           0.123158    4.920223   -1.144702 H         1 <1>         0.153300 
     49 H           2.784499    2.110499   -2.994917 H         1 <1>         0.170400 
     50 H           2.172612   -1.101956   -3.141281 H         1 <1>         0.139500 
     51 H           2.849744   -2.350559   -5.219699 H         1 <1>         0.133100 
     52 H           4.623639   -3.106513   -6.767409 H         1 <1>         0.134300 
     53 H           7.000862   -2.495198   -6.346225 H         1 <1>         0.133900 
     54 H           7.605093   -1.127731   -4.376834 H         1 <1>         0.133100 
     55 H           6.928059    0.090294   -2.329100 H         1 <1>         0.131600 
     56 H           4.853510    0.632085    0.499826 H         1 <1>         0.176000 
     57 H           4.841562    2.104053   -0.465741 H         1 <1>         0.170400 
     58 H           6.345742    1.184299   -0.291666 H         1 <1>         0.157900 
@<TRIPOS>BOND
     1   15   45 1    
     2   35   56 1    
     3   35   58 1    
     4   15   46 1    
     5   13   15 1    
     6   15   16 1    
     7    1   37 1    
     8   34   35 1    
     9   35   57 1    
    10    6   41 1    
    11   13   14 2    
    12   12   13 1    
    13   16   17 1    
    14   33   55 1    
    15   12   44 1    
    16   11   12 1    
    17    6   40 1    
    18    5    6 1    
    19   34   33 ar   
    20   25   34 ar   
    21   33   32 ar   
    22   10   43 1    
    23   24   25 1    
    24   23   24 1    
    25   31   54 1    
    26   10   11 ar   
    27    2   11 ar   
    28    9   10 ar   
    29   25   26 ar   
    30   32   31 ar   
    31   27   32 ar   
    32    2    1 1    
    33    1   36 1    
    34    1   38 1    
    35   31   30 ar   
    36    3    2 ar   
    37    9   42 1    
    38    4    9 ar   
    39   26   27 ar   
    40   26   50 1    
    41   27   28 ar   
    42    4    3 ar   
    43    3   39 1    
    44   30   53 1    
    45   30   29 ar   
    46   17   23 ar   
    47   17   18 ar   
    48    4    5 1    
    49   28   29 ar   
    50   28   51 1    
    51   23   22 ar   
    52   29   52 1    
    53    5    7 2    
    54    5    8 2    
    55   18   47 1    
    56   18   19 ar   
    57   22   49 1    
    58   22   20 ar   
    59   19   20 ar   
    60   19   48 1    
    61   20   21 1    
@<TRIPOS>SUBSTRUCTURE
     1 ****       37 TEMP              0 ****  ****    0 ROOT 
