#	Name:			MXD-2011-BMC-4704-7l
#	Creating user name:	Administrator
#	Creation time:		Sun Jul 05 17:02:47 2020

#	Modifying user name:	Administrator
#	Modification time:	Sun Jul 05 17:04:11 2020

@<TRIPOS>MOLECULE
MXD-2011-BMC-4704-7l
   58    60     1     0     0
SMALL
MULLIKEN_CHARGES
INVALID_CHARGES
Gaussian 16 #p B3LYP/6-31G* opt
@<TRIPOS>ATOM
      1 C           4.114968    4.569766   -0.091965 C.3       1 <1>        -0.531100 
      2 C           4.597616    3.170828    0.217728 C.ar      1 <1>         0.183900 
      3 C           5.841250    2.958758    0.820396 C.ar      1 <1>        -0.232600 
      4 C           6.298432    1.672160    1.134748 C.ar      1 <1>         0.182400 
      5 C           7.664668    1.467948    1.748498 C.3       1 <1>        -0.529500 
      6 C           5.474928    0.581134    0.843401 C.ar      1 <1>        -0.224800 
      7 C           4.228034    0.764281    0.237230 C.ar      1 <1>         0.197000 
      8 C           3.346282   -0.435050   -0.082500 C.3       1 <1>         0.000200 
      9 O           4.132339   -1.355010   -0.839696 O.3       1 <1>        -0.619700 
     10 C           2.786314   -1.090283    1.183242 C.ar      1 <1>         0.072400 
     11 C           3.360260   -2.254443    1.694572 C.ar      1 <1>        -0.211600 
     12 C           2.866709   -2.832493    2.864314 C.ar      1 <1>        -0.059100 
     13 CL          3.615487   -4.297768    3.485263 Cl        1 <1>        -0.019800 
     14 C           1.792177   -2.268114    3.541821 C.ar      1 <1>        -0.143500 
     15 C           1.201361   -1.107747    3.036131 C.ar      1 <1>        -0.178700 
     16 C           1.697775   -0.522148    1.870379 C.ar      1 <1>         0.320100 
     17 O           1.152543    0.613024    1.297963 O.3       1 <1>        -0.546800 
     18 C           0.399032    1.500376    2.119148 C.3       1 <1>        -0.141900 
     19 C          -1.106585    1.202531    2.173218 C.2       1 <1>         0.580300 
     20 O          -1.801480    1.740994    3.021453 O.2       1 <1>        -0.492100 
     21 N          -1.535373    0.357572    1.181988 N.am      1 <1>        -0.727700 
     22 C          -2.835462   -0.106315    0.908331 C.ar      1 <1>         0.296300 
     23 C          -3.942279    0.294720    1.673938 C.ar      1 <1>        -0.155100 
     24 C          -5.210468   -0.189380    1.368892 C.ar      1 <1>        -0.172500 
     25 C          -5.375866   -1.065500    0.296631 C.ar      1 <1>        -0.142400 
     26 S          -7.014320   -1.665838   -0.127289 S.o2      1 <1>         1.162600 
     27 N          -7.708485   -0.531952   -1.166853 N.3       1 <1>        -0.785200 
     28 O          -6.841476   -2.874637   -0.931962 O.2       1 <1>        -0.528400 
     29 O          -7.825023   -1.623506    1.088235 O.2       1 <1>        -0.525500 
     30 C          -4.276830   -1.475248   -0.459910 C.ar      1 <1>        -0.228800 
     31 C          -2.994847   -1.009452   -0.170499 C.ar      1 <1>         0.157100 
     32 C          -1.813353   -1.477137   -0.988637 C.3       1 <1>        -0.567800 
     33 C           3.801454    2.056365   -0.074409 C.ar      1 <1>        -0.246100 
     34 H           3.589974    5.011508    0.765986 H         1 <1>         0.162300 
     35 H           3.418528    4.575551   -0.937413 H         1 <1>         0.154900 
     36 H           4.948506    5.236485   -0.337375 H         1 <1>         0.160000 
     37 H           6.473418    3.815682    1.047768 H         1 <1>         0.115000 
     38 H           8.440744    1.398986    0.974548 H         1 <1>         0.168000 
     39 H           7.937525    2.299478    2.407347 H         1 <1>         0.156100 
     40 H           7.706854    0.543530    2.333762 H         1 <1>         0.159100 
     41 H           5.813468   -0.424380    1.077365 H         1 <1>         0.132500 
     42 H           2.500394   -0.077844   -0.685733 H         1 <1>         0.130700 
     43 H           3.558599   -2.101054   -1.080166 H         1 <1>         0.392900 
     44 H           4.200967   -2.699754    1.174930 H         1 <1>         0.169100 
     45 H           1.409471   -2.726730    4.447023 H         1 <1>         0.164500 
     46 H           0.350819   -0.681253    3.556951 H         1 <1>         0.161400 
     47 H           0.528950    2.495689    1.681550 H         1 <1>         0.198900 
     48 H           0.782499    1.528184    3.143147 H         1 <1>         0.192100 
     49 H          -0.792859    0.019891    0.582546 H         1 <1>         0.362900 
     50 H          -3.792687    0.971567    2.503450 H         1 <1>         0.199200 
     51 H          -6.063415    0.095350    1.976377 H         1 <1>         0.178200 
     52 H          -7.202195   -0.449235   -2.044845 H         1 <1>         0.346100 
     53 H          -7.853866    0.368525   -0.716806 H         1 <1>         0.347900 
     54 H          -4.422857   -2.185960   -1.267413 H         1 <1>         0.173600 
     55 H          -1.061789   -1.987238   -0.370652 H         1 <1>         0.173900 
     56 H          -2.134087   -2.185568   -1.756669 H         1 <1>         0.180400 
     57 H          -1.310611   -0.646221   -1.503074 H         1 <1>         0.166400 
     58 H           2.835253    2.199081   -0.553652 H         1 <1>         0.112300 
@<TRIPOS>BOND
     1   19   20 2    
     2   18   48 1    
     3   23   50 1    
     4   15   46 1    
     5   14   45 1    
     6   24   51 1    
     7   18   19 1    
     8   19   21 1    
     9   18   47 1    
    10   17   18 1    
    11   15   14 ar   
    12   16   15 ar   
    13   12   14 ar   
    14   23   24 ar   
    15   22   23 ar   
    16   24   25 ar   
    17    1   34 1    
    18    5   39 1    
    19   26   29 2    
    20   21   22 1    
    21   21   49 1    
    22   16   17 1    
    23   10   16 ar   
    24   12   13 1    
    25   11   12 ar   
    26    3   37 1    
    27   22   31 ar   
    28    5   40 1    
    29    4    5 1    
    30    5   38 1    
    31    4    3 ar   
    32    2    3 ar   
    33    1   36 1    
    34    2    1 1    
    35    1   35 1    
    36   25   26 1    
    37   30   25 ar   
    38    6    4 ar   
    39   27   53 1    
    40   33    2 ar   
    41   26   27 1    
    42   26   28 2    
    43   10   11 ar   
    44   11   44 1    
    45    8   10 1    
    46    6   41 1    
    47    7    6 ar   
    48    7   33 ar   
    49   33   58 1    
    50   31   30 ar   
    51   31   32 1    
    52   27   52 1    
    53    7    8 1    
    54   30   54 1    
    55    8   42 1    
    56    8    9 1    
    57   32   55 1    
    58   32   57 1    
    59   32   56 1    
    60    9   43 1    
@<TRIPOS>SUBSTRUCTURE
     1 ****       34 TEMP              0 ****  ****    0 ROOT 
