#	Name:			MXD-2011-BMC-4704-7r
#	Creating user name:	Administrator
#	Creation time:		Sun Jul 05 17:02:47 2020

#	Modifying user name:	Administrator
#	Modification time:	Sun Jul 05 17:04:11 2020

@<TRIPOS>MOLECULE
MXD-2011-BMC-4704-7r
   53    55     1     0     0
SMALL
MULLIKEN_CHARGES
INVALID_CHARGES
Gaussian 16 #p B3LYP/6-31G* opt
@<TRIPOS>ATOM
      1 C          -1.843685   -1.385827   -1.058582 C.3       1 <1>        -0.569800 
      2 C          -3.014406   -0.961589   -0.201091 C.ar      1 <1>         0.154900 
      3 C          -4.294442   -1.433395   -0.486301 C.ar      1 <1>        -0.212800 
      4 C          -5.384305   -1.056383    0.297661 C.ar      1 <1>        -0.121000 
      5 S          -7.011572   -1.686094   -0.103177 S.o2      1 <1>         1.169700 
      6 N          -7.598179   -0.569950   -1.243041 N.3       1 <1>        -0.814900 
      7 O          -6.839133   -2.949541   -0.826837 O.2       1 <1>        -0.540500 
      8 O          -7.832920   -1.578020    1.106138 O.2       1 <1>        -0.526800 
      9 C          -5.217747   -0.210767    1.390777 C.ar      1 <1>        -0.163200 
     10 C          -3.949700    0.277035    1.694588 C.ar      1 <1>        -0.150900 
     11 C          -2.851950   -0.092220    0.904195 C.ar      1 <1>         0.291300 
     12 N          -1.542432    0.369027    1.176316 N.am      1 <1>        -0.726300 
     13 C          -1.104038    1.213912    2.158842 C.2       1 <1>         0.633200 
     14 O          -1.824902    1.777908    2.972218 O.2       1 <1>        -0.498500 
     15 C           0.426595    1.363130    2.204975 C.3       1 <1>        -0.137200 
     16 O           0.725178    2.654305    2.682247 O.3       1 <1>        -0.514600 
     17 C           1.642871    2.799830    3.703573 C.ar      1 <1>         0.307300 
     18 C           2.831648    2.072693    3.747514 C.ar      1 <1>        -0.169600 
     19 C           3.731685    2.271655    4.795978 C.ar      1 <1>        -0.140100 
     20 C           3.428156    3.211075    5.775846 C.ar      1 <1>        -0.063200 
     21 CL          4.550508    3.471385    7.103705 Cl        1 <1>        -0.015900 
     22 C           2.247239    3.953039    5.722207 C.ar      1 <1>        -0.189900 
     23 C           1.336849    3.762456    4.681980 C.ar      1 <1>         0.113800 
     24 C          -0.022507    4.473261    4.611735 C.3       1 <1>         0.019400 
     25 O          -1.051548    3.609830    5.061376 O.3       1 <1>        -0.666700 
     26 C          -0.071595    5.759633    5.422074 C.ar      1 <1>         0.091000 
     27 C          -0.871838    5.847091    6.564529 C.ar      1 <1>        -0.151800 
     28 C          -0.916740    7.040223    7.287032 C.ar      1 <1>        -0.074800 
     29 CL         -1.926573    7.137055    8.720397 Cl        1 <1>        -0.004000 
     30 C          -0.185898    8.157339    6.900325 C.ar      1 <1>        -0.135700 
     31 C           0.613886    8.064595    5.748947 C.ar      1 <1>         0.129000 
     32 C           1.372915    9.204130    5.319789 C.1       1 <1>         0.242500 
     33 N           1.988896   10.126046    4.967966 N.1       1 <1>        -0.476300 
     34 C           0.670289    6.871437    5.015182 C.ar      1 <1>        -0.172700 
     35 H          -1.353585   -0.530609   -1.544813 H         1 <1>         0.168800 
     36 H          -2.175287   -2.057478   -1.854211 H         1 <1>         0.187200 
     37 H          -1.080173   -1.927072   -0.482061 H         1 <1>         0.167500 
     38 H          -4.444574   -2.114977   -1.317288 H         1 <1>         0.174100 
     39 H          -8.349811   -0.020689   -0.830075 H         1 <1>         0.356400 
     40 H          -7.929754   -1.082990   -2.057924 H         1 <1>         0.358900 
     41 H          -6.067963    0.053743    2.010029 H         1 <1>         0.184300 
     42 H          -3.802792    0.937016    2.537153 H         1 <1>         0.201200 
     43 H          -0.829199    0.023261    0.549227 H         1 <1>         0.345500 
     44 H           0.874530    1.209009    1.212818 H         1 <1>         0.155200 
     45 H           0.818407    0.589474    2.879213 H         1 <1>         0.187500 
     46 H           3.069916    1.361483    2.962353 H         1 <1>         0.140100 
     47 H           4.659188    1.711381    4.840340 H         1 <1>         0.160400 
     48 H           2.036052    4.677059    6.500756 H         1 <1>         0.168400 
     49 H          -0.193810    4.744938    3.561127 H         1 <1>         0.151800 
     50 H          -1.262574    2.983229    4.339987 H         1 <1>         0.445100 
     51 H          -1.460049    4.990288    6.868089 H         1 <1>         0.195700 
     52 H          -0.232678    9.079141    7.467875 H         1 <1>         0.178000 
     53 H           1.294728    6.821033    4.128334 H         1 <1>         0.158800 
@<TRIPOS>BOND
     1   32   33 3    
     2   31   32 1    
     3   34   53 1    
     4    1   35 1    
     5   34   31 ar   
     6   31   30 ar   
     7    1   36 1    
     8   26   34 ar   
     9    6   40 1    
    10   15   44 1    
    11   24   49 1    
    12    2    1 1    
    13    1   37 1    
    14    6   39 1    
    15    5    6 1    
    16   12   43 1    
    17   15   16 1    
    18   16   17 1    
    19    3   38 1    
    20    3    2 ar   
    21    2   11 ar   
    22   30   52 1    
    23   30   28 ar   
    24   13   15 1    
    25   15   45 1    
    26   11   12 1    
    27   12   13 1    
    28    4    3 ar   
    29   24   26 1    
    30   26   27 ar   
    31   23   24 1    
    32   24   25 1    
    33   17   23 ar   
    34   17   18 ar   
    35   11   10 ar   
    36   13   14 2    
    37   18   46 1    
    38   23   22 ar   
    39   18   19 ar   
    40    4    5 1    
    41    4    9 ar   
    42   10    9 ar   
    43   10   42 1    
    44    5    7 2    
    45    5    8 2    
    46    9   41 1    
    47   28   27 ar   
    48   28   29 1    
    49   25   50 1    
    50   22   48 1    
    51   22   20 ar   
    52   27   51 1    
    53   19   47 1    
    54   19   20 ar   
    55   20   21 1    
@<TRIPOS>SUBSTRUCTURE
     1 ****       43 TEMP              0 ****  ****    0 ROOT 
