#	Name:			MXD-2011-BMC-4704-7t
#	Creating user name:	Administrator
#	Creation time:		Sun Jul 05 17:02:47 2020

#	Modifying user name:	Administrator
#	Modification time:	Sun Jul 05 17:04:11 2020

@<TRIPOS>MOLECULE
MXD-2011-BMC-4704-7t
   58    61     1     0     0
SMALL
MULLIKEN_CHARGES
INVALID_CHARGES
Gaussian 16 #p B3LYP/6-31G* opt
@<TRIPOS>ATOM
      1 C          -1.761073   -1.482740   -0.834737 C.3       1 <1>        -0.553700 
      2 C          -2.969981   -1.060063   -0.035703 C.ar      1 <1>         0.176500 
      3 C          -4.259606   -1.367385   -0.474197 C.ar      1 <1>        -0.227500 
      4 C          -5.381135   -0.955104    0.248346 C.ar      1 <1>        -0.140400 
      5 S          -7.026402   -1.380342   -0.345872 S.o2      1 <1>         1.168800 
      6 N          -7.429346   -2.870974    0.324271 N.3       1 <1>        -0.785700 
      7 O          -7.956849   -0.421365    0.245985 O.2       1 <1>        -0.524000 
      8 O          -6.919752   -1.614796   -1.784226 O.2       1 <1>        -0.522800 
      9 C          -5.242676   -0.227465    1.429381 C.ar      1 <1>        -0.167300 
     10 C          -3.963350    0.066525    1.892394 C.ar      1 <1>        -0.148700 
     11 C          -2.831904   -0.326873    1.165364 C.ar      1 <1>         0.257900 
     12 N          -1.530337   -0.031391    1.634837 N.am      1 <1>        -0.702900 
     13 C          -0.961507    1.157812    2.056083 C.2       1 <1>         0.582200 
     14 O           0.219693    1.199592    2.352492 O.2       1 <1>        -0.474900 
     15 C          -1.868592    2.391798    2.112262 C.3       1 <1>        -0.121200 
     16 O          -1.031271    3.519089    1.988358 O.3       1 <1>        -0.512000 
     17 C          -1.604628    4.741401    1.755201 C.ar      1 <1>         0.345900 
     18 C          -2.963031    5.014485    1.928018 C.ar      1 <1>        -0.185000 
     19 C          -3.458610    6.297641    1.678470 C.ar      1 <1>        -0.140400 
     20 C          -2.584468    7.292860    1.261430 C.ar      1 <1>        -0.061300 
     21 CL         -3.194630    8.914269    0.946212 Cl        1 <1>        -0.028700 
     22 C          -1.225146    7.026736    1.087242 C.ar      1 <1>        -0.206800 
     23 C          -0.717758    5.752284    1.329999 C.ar      1 <1>         0.064700 
     24 C           0.768348    5.443922    1.121187 C.3       1 <1>        -0.004200 
     25 O           1.545754    6.639698    1.060307 O.3       1 <1>        -0.625800 
     26 C           1.005954    4.673908   -0.169002 C.ar      1 <1>         0.173600 
     27 C           0.904259    5.332268   -1.424603 C.ar      1 <1>        -0.165000 
     28 C           1.082105    4.636183   -2.596760 C.ar      1 <1>        -0.197300 
     29 C           1.359867    3.241621   -2.586713 C.ar      1 <1>         0.142000 
     30 C           1.531912    2.484762   -3.776502 C.ar      1 <1>        -0.193100 
     31 C           1.794835    1.133716   -3.722477 C.ar      1 <1>        -0.135100 
     32 C           1.900145    0.475224   -2.471998 C.ar      1 <1>        -0.143600 
     33 C           1.741183    1.181569   -1.299463 C.ar      1 <1>        -0.200700 
     34 C           1.467535    2.576479   -1.323390 C.ar      1 <1>         0.121500 
     35 C           1.294346    3.327172   -0.130212 C.ar      1 <1>        -0.278700 
     36 H          -2.063343   -1.923843   -1.788140 H         1 <1>         0.176800 
     37 H          -1.162823   -2.237454   -0.304361 H         1 <1>         0.161700 
     38 H          -1.097931   -0.635989   -1.047816 H         1 <1>         0.194900 
     39 H          -4.397257   -1.899734   -1.410478 H         1 <1>         0.179100 
     40 H          -6.833231   -3.627138   -0.001700 H         1 <1>         0.350100 
     41 H          -7.515027   -2.841502    1.336806 H         1 <1>         0.350100 
     42 H          -6.120951    0.102794    1.973728 H         1 <1>         0.182700 
     43 H          -3.839166    0.588162    2.835798 H         1 <1>         0.149900 
     44 H          -0.822538   -0.747601    1.511900 H         1 <1>         0.343700 
     45 H          -2.615682    2.365929    1.309699 H         1 <1>         0.179300 
     46 H          -2.405644    2.404620    3.073220 H         1 <1>         0.168100 
     47 H          -3.648275    4.243189    2.261572 H         1 <1>         0.140600 
     48 H          -4.513231    6.512201    1.812390 H         1 <1>         0.157500 
     49 H          -0.550818    7.807870    0.755437 H         1 <1>         0.164800 
     50 H           1.105067    4.813261    1.954295 H         1 <1>         0.153700 
     51 H           1.450732    7.091336    1.914699 H         1 <1>         0.395200 
     52 H           0.694860    6.397164   -1.448189 H         1 <1>         0.142400 
     53 H           1.007846    5.148463   -3.553388 H         1 <1>         0.129300 
     54 H           1.451666    2.991615   -4.735581 H         1 <1>         0.129800 
     55 H           1.925086    0.567158   -4.640765 H         1 <1>         0.127600 
     56 H           2.116360   -0.589804   -2.443137 H         1 <1>         0.123300 
     57 H           1.826086    0.687296   -0.334131 H         1 <1>         0.137500 
     58 H           1.367412    2.813827    0.824076 H         1 <1>         0.175400 
@<TRIPOS>BOND
     1   30   54 1    
     2   28   53 1    
     3   31   55 1    
     4   30   31 ar   
     5   29   30 ar   
     6    5    8 2    
     7   28   29 ar   
     8   27   28 ar   
     9   32   31 ar   
    10   27   52 1    
    11   20   21 1    
    12   34   29 ar   
    13   26   27 ar   
    14    5    7 2    
    15    5    6 1    
    16    4    5 1    
    17    3   39 1    
    18   19   20 ar   
    19   22   20 ar   
    20   19   48 1    
    21    1   36 1    
    22   22   49 1    
    23   32   56 1    
    24   33   32 ar   
    25    3    4 ar   
    26    2    3 ar   
    27   18   19 ar   
    28   23   22 ar   
    29    6   40 1    
    30    6   41 1    
    31   34   33 ar   
    32   35   34 ar   
    33    9    4 ar   
    34   26   35 ar   
    35   24   26 1    
    36    1   38 1    
    37    2    1 1    
    38    1   37 1    
    39   33   57 1    
    40   11    2 ar   
    41   18   47 1    
    42   17   18 ar   
    43   17   23 ar   
    44   23   24 1    
    45   35   58 1    
    46    9   42 1    
    47   10    9 ar   
    48   24   25 1    
    49   25   51 1    
    50   15   45 1    
    51   16   17 1    
    52   24   50 1    
    53   11   10 ar   
    54   12   11 1    
    55   10   43 1    
    56   15   16 1    
    57   13   15 1    
    58   15   46 1    
    59   12   13 1    
    60   12   44 1    
    61   13   14 2    
@<TRIPOS>SUBSTRUCTURE
     1 ****       36 TEMP              0 ****  ****    0 ROOT 
