#	Name:			MXD-2011-BMC-4601-10v
#	Creating user name:	Administrator
#	Creation time:		Sun Jul 05 17:02:46 2020

#	Modifying user name:	Administrator
#	Modification time:	Sun Jul 05 17:04:11 2020

@<TRIPOS>MOLECULE
MXD-2011-BMC-4601-10v
   63    66     1     0     0
SMALL
MULLIKEN_CHARGES
INVALID_CHARGES
Gaussian 16 #p B3LYP/6-31G* opt
@<TRIPOS>ATOM
      1 C           5.807143   -1.902553   -2.949441 C.3       1 <1>        -0.531700 
      2 C           5.416128   -1.806908   -1.492743 C.ar      1 <1>         0.179800 
      3 C           6.396454   -1.630179   -0.502964 C.ar      1 <1>        -0.216600 
      4 C           6.079199   -1.541245    0.856873 C.ar      1 <1>         0.178400 
      5 C           7.158114   -1.315401    1.891069 C.3       1 <1>        -0.530900 
      6 C           4.735094   -1.645112    1.230900 C.ar      1 <1>        -0.233100 
      7 C           3.735049   -1.821332    0.265382 C.ar      1 <1>         0.093100 
      8 C           2.295750   -1.910927    0.632017 C.2       1 <1>         0.332700 
      9 O           1.415882   -1.927525   -0.221281 O.2       1 <1>        -0.463400 
     10 C           1.893235   -1.973784    2.092992 C.ar      1 <1>        -0.088400 
     11 C           1.253193   -0.871301    2.645838 C.ar      1 <1>         0.354000 
     12 O           1.168531    0.230809    1.832320 O.3       1 <1>        -0.536600 
     13 C           0.416707    1.362243    2.255725 C.3       1 <1>        -0.148100 
     14 C          -1.106469    1.162815    2.204216 C.2       1 <1>         0.587900 
     15 O          -1.824726    1.810479    2.951875 O.2       1 <1>        -0.495500 
     16 N          -1.515918    0.274150    1.244162 N.am      1 <1>        -0.726300 
     17 C          -2.830531   -0.114411    0.908185 C.ar      1 <1>         0.289100 
     18 C          -3.944014    0.342981    1.631546 C.ar      1 <1>        -0.155400 
     19 C          -5.224205   -0.071186    1.277061 C.ar      1 <1>        -0.174000 
     20 C          -5.392486   -0.944770    0.203959 C.ar      1 <1>        -0.141700 
     21 S          -7.035606   -1.519482   -0.234227 S.o2      1 <1>         1.161300 
     22 N          -7.332406   -2.914503    0.670345 N.3       1 <1>        -0.785300 
     23 O          -7.993549   -0.529678    0.256092 O.2       1 <1>        -0.527100 
     24 O          -6.989815   -1.964085   -1.626816 O.2       1 <1>        -0.528900 
     25 C          -4.290071   -1.387311   -0.528847 C.ar      1 <1>        -0.229200 
     26 C          -2.996612   -0.983060   -0.198346 C.ar      1 <1>         0.152500 
     27 C          -1.823117   -1.446953   -1.028247 C.3       1 <1>        -0.570000 
     28 C           0.749134   -0.904121    3.970023 C.ar      1 <1>        -0.188200 
     29 C           0.900321   -2.042514    4.726473 C.ar      1 <1>        -0.195600 
     30 C           1.548547   -3.191694    4.208353 C.ar      1 <1>         0.139000 
     31 C           1.696019   -4.367297    4.983073 C.ar      1 <1>        -0.216900 
     32 C           2.313043   -5.489160    4.456856 C.ar      1 <1>         0.134400 
     33 C           2.459508   -6.673631    5.249790 C.1       1 <1>         0.234600 
     34 N           2.583413   -7.638392    5.888434 N.1       1 <1>        -0.476200 
     35 C           2.801553   -5.466313    3.117920 C.ar      1 <1>        -0.142600 
     36 C           2.670702   -4.336986    2.349608 C.ar      1 <1>        -0.203300 
     37 C           2.050019   -3.160217    2.863631 C.ar      1 <1>         0.123500 
     38 C           4.084305   -1.896727   -1.093075 C.ar      1 <1>        -0.222200 
     39 H           4.926512   -1.979647   -3.593635 H         1 <1>         0.164600 
     40 H           6.436272   -2.781842   -3.136034 H         1 <1>         0.168400 
     41 H           6.380633   -1.023499   -3.267140 H         1 <1>         0.167000 
     42 H           7.440660   -1.560058   -0.804255 H         1 <1>         0.128100 
     43 H           7.381058   -0.246294    2.004064 H         1 <1>         0.172000 
     44 H           6.855548   -1.691190    2.873739 H         1 <1>         0.163200 
     45 H           8.092334   -1.813254    1.610875 H         1 <1>         0.163700 
     46 H           4.465390   -1.582093    2.281169 H         1 <1>         0.140600 
     47 H           0.691572    2.158705    1.557327 H         1 <1>         0.200800 
     48 H           0.684264    1.690175    3.263849 H         1 <1>         0.185900 
     49 H          -0.767167   -0.175512    0.728260 H         1 <1>         0.374000 
     50 H          -3.795414    1.028000    2.453944 H         1 <1>         0.196100 
     51 H          -6.088202    0.300635    1.818038 H         1 <1>         0.176700 
     52 H          -7.354702   -2.727117    1.669857 H         1 <1>         0.346600 
     53 H          -6.692757   -3.669512    0.434660 H         1 <1>         0.345900 
     54 H          -4.446397   -2.034168   -1.386565 H         1 <1>         0.171900 
     55 H          -1.305957   -0.603854   -1.506026 H         1 <1>         0.170500 
     56 H          -2.161389   -2.112550   -1.826860 H         1 <1>         0.170300 
     57 H          -1.069083   -1.989077   -0.445441 H         1 <1>         0.197200 
     58 H           0.231597   -0.048902    4.388134 H         1 <1>         0.170800 
     59 H           0.511376   -2.070025    5.740772 H         1 <1>         0.154100 
     60 H           1.315668   -4.383740    6.000127 H         1 <1>         0.163200 
     61 H           3.276142   -6.354461    2.713960 H         1 <1>         0.162100 
     62 H           3.045920   -4.340926    1.331849 H         1 <1>         0.158100 
     63 H           3.292022   -2.029276   -1.823184 H         1 <1>         0.155700 
@<TRIPOS>BOND
     1   13   48 1    
     2   14   15 2    
     3   28   58 1    
     4   13   47 1    
     5   14   13 1    
     6   13   12 1    
     7   16   14 1    
     8   18   50 1    
     9   29   59 1    
    10   28   29 ar   
    11   11   28 ar   
    12    5   43 1    
    13   29   30 ar   
    14   12   11 1    
    15   19   18 ar   
    16   18   17 ar   
    17   19   51 1    
    18   11   10 ar   
    19   17   16 1    
    20   16   49 1    
    21    5   44 1    
    22    5   45 1    
    23    4    5 1    
    24   20   19 ar   
    25    6   46 1    
    26   31   60 1    
    27   26   17 ar   
    28   30   31 ar   
    29   37   30 ar   
    30   10   37 ar   
    31   10    8 1    
    32   31   32 ar   
    33    6    4 ar   
    34    7    6 ar   
    35    4    3 ar   
    36   37   36 ar   
    37   21   23 2    
    38   20   25 ar   
    39   21   20 1    
    40    8    7 1    
    41    8    9 2    
    42   25   26 ar   
    43   26   27 1    
    44    7   38 ar   
    45    3   42 1    
    46    3    2 ar   
    47   32   33 1    
    48   32   35 ar   
    49   22   52 1    
    50   27   55 1    
    51   25   54 1    
    52   21   22 1    
    53   21   24 2    
    54   36   35 ar   
    55   36   62 1    
    56   33   34 3    
    57   27   57 1    
    58   27   56 1    
    59   38    2 ar   
    60   38   63 1    
    61    2    1 1    
    62   35   61 1    
    63   22   53 1    
    64    1   41 1    
    65    1   39 1    
    66    1   40 1    
@<TRIPOS>SUBSTRUCTURE
     1 ****       48 TEMP              0 ****  ****    0 ROOT 
