#	Name:			MXD-2011-BMC-4601-10k
#	Creating user name:	Administrator
#	Creation time:		Sun Jul 05 17:02:45 2020

#	Modifying user name:	Administrator
#	Modification time:	Sun Jul 05 17:04:11 2020

@<TRIPOS>MOLECULE
MXD-2011-BMC-4601-10k
   59    62     1     0     0
SMALL
MULLIKEN_CHARGES
INVALID_CHARGES
Gaussian 16 #p B3LYP/6-31G* opt
@<TRIPOS>ATOM
      1 C           1.989906    0.964247    9.257566 C.3       1 <1>        -0.530400 
      2 C           1.199752    1.561777    8.115719 C.ar      1 <1>         0.173900 
      3 C          -0.170301    1.285183    7.971107 C.ar      1 <1>        -0.165100 
      4 C          -0.907986    1.834001    6.923836 C.ar      1 <1>        -0.141900 
      5 C          -0.294433    2.673757    5.994110 C.ar      1 <1>        -0.171900 
      6 C           1.070524    2.962379    6.119077 C.ar      1 <1>         0.094300 
      7 C           1.791764    3.883277    5.189981 C.2       1 <1>         0.328500 
      8 O           2.950503    4.217884    5.406663 O.2       1 <1>        -0.469600 
      9 C           1.071843    4.477423    3.996389 C.ar      1 <1>        -0.055000 
     10 C           0.629293    3.665982    2.960706 C.ar      1 <1>         0.359200 
     11 O           0.874249    2.321591    3.111256 O.3       1 <1>        -0.512600 
     12 C           0.424253    1.405637    2.150402 C.3       1 <1>        -0.144700 
     13 C          -1.106246    1.204180    2.184019 C.2       1 <1>         0.602800 
     14 O          -1.813368    1.720934    3.029805 O.2       1 <1>        -0.472500 
     15 N          -1.545754    0.377963    1.171312 N.am      1 <1>        -0.732800 
     16 C          -2.849915   -0.089733    0.902212 C.ar      1 <1>         0.296000 
     17 C          -3.948225    0.276477    1.694639 C.ar      1 <1>        -0.153800 
     18 C          -5.216666   -0.210382    1.391557 C.ar      1 <1>        -0.164200 
     19 C          -5.385696   -1.054613    0.297477 C.ar      1 <1>        -0.123800 
     20 S          -7.011483   -1.682984   -0.101195 S.o2      1 <1>         1.166700 
     21 N          -7.577731   -0.596983   -1.282550 N.3       1 <1>        -0.814900 
     22 O          -6.847531   -2.967046   -0.790239 O.2       1 <1>        -0.543000 
     23 O          -7.845144   -1.537772    1.096492 O.2       1 <1>        -0.527800 
     24 C          -4.296238   -1.429736   -0.488664 C.ar      1 <1>        -0.211900 
     25 C          -3.016419   -0.958053   -0.204595 C.ar      1 <1>         0.153600 
     26 C          -1.846651   -1.380660   -1.063991 C.3       1 <1>        -0.567800 
     27 C           0.006852    4.215566    1.814056 C.ar      1 <1>        -0.176900 
     28 C          -0.163497    5.575333    1.712673 C.ar      1 <1>        -0.198000 
     29 C           0.282516    6.449571    2.734374 C.ar      1 <1>         0.136700 
     30 C           0.103743    7.854920    2.626943 C.ar      1 <1>        -0.222900 
     31 C           0.548040    8.678397    3.629635 C.ar      1 <1>         0.081400 
     32 BR          0.308801   10.571336    3.490340 Br        1 <1>        -0.133700 
     33 C           1.188204    8.155301    4.775963 C.ar      1 <1>        -0.153400 
     34 C           1.371445    6.797605    4.898679 C.ar      1 <1>        -0.187900 
     35 C           0.925404    5.895824    3.889878 C.ar      1 <1>         0.107200 
     36 C           1.801357    2.403399    7.181600 C.ar      1 <1>        -0.220000 
     37 H           1.937871   -0.131552    9.250766 H         1 <1>         0.160800 
     38 H           3.044907    1.249528    9.203137 H         1 <1>         0.161200 
     39 H           1.603473    1.297812   10.228834 H         1 <1>         0.163600 
     40 H          -0.661012    0.631172    8.689418 H         1 <1>         0.126800 
     41 H          -1.965789    1.605911    6.826663 H         1 <1>         0.136900 
     42 H          -0.873906    3.084414    5.175625 H         1 <1>         0.166000 
     43 H           0.908557    0.457858    2.410925 H         1 <1>         0.197500 
     44 H           0.755829    1.678955    1.137122 H         1 <1>         0.162300 
     45 H          -0.830303    0.033199    0.545498 H         1 <1>         0.342300 
     46 H          -3.796749    0.931878    2.540105 H         1 <1>         0.198400 
     47 H          -6.066348    0.052792    2.012053 H         1 <1>         0.181100 
     48 H          -8.302341   -0.003134   -0.882891 H         1 <1>         0.353900 
     49 H          -7.946183   -1.138249   -2.062873 H         1 <1>         0.357500 
     50 H          -4.446725   -2.109826   -1.320909 H         1 <1>         0.171100 
     51 H          -1.358070   -0.524688   -1.550578 H         1 <1>         0.165400 
     52 H          -1.081009   -1.919250   -0.488017 H         1 <1>         0.167700 
     53 H          -2.177978   -2.053224   -1.859181 H         1 <1>         0.184400 
     54 H          -0.349676    3.574758    1.016015 H         1 <1>         0.132800 
     55 H          -0.649508    5.995028    0.835763 H         1 <1>         0.141300 
     56 H          -0.385289    8.264809    1.749076 H         1 <1>         0.151100 
     57 H           1.534946    8.829996    5.550953 H         1 <1>         0.155700 
     58 H           1.880687    6.409584    5.772418 H         1 <1>         0.165800 
     59 H           2.856484    2.648496    7.258272 H         1 <1>         0.152300 
@<TRIPOS>BOND
     1   20   23 2    
     2    4   41 1    
     3    3   40 1    
     4   18   47 1    
     5   21   48 1    
     6    1   39 1    
     7    4    3 ar   
     8    5    4 ar   
     9    2    3 ar   
    10   20   21 1    
    11   19   20 1    
    12   20   22 2    
    13   17   18 ar   
    14   18   19 ar   
    15   21   49 1    
    16   17   46 1    
    17    5   42 1    
    18    6    5 ar   
    19    2    1 1    
    20    1   37 1    
    21    1   38 1    
    22   36    2 ar   
    23   31   32 1    
    24   33   57 1    
    25   16   17 ar   
    26   33   31 ar   
    27   34   33 ar   
    28   24   19 ar   
    29   30   31 ar   
    30    6   36 ar   
    31   36   59 1    
    32    7    6 1    
    33   34   58 1    
    34   13   14 2    
    35   35   34 ar   
    36   30   56 1    
    37   29   30 ar   
    38   35   29 ar   
    39    9   35 ar   
    40   28   29 ar   
    41    9    7 1    
    42    7    8 2    
    43   10    9 ar   
    44   15   16 1    
    45   16   25 ar   
    46   24   50 1    
    47   25   24 ar   
    48   13   15 1    
    49   12   13 1    
    50   28   55 1    
    51   27   28 ar   
    52   10   27 ar   
    53   11   10 1    
    54   27   54 1    
    55   15   45 1    
    56   25   26 1    
    57   11   12 1    
    58   12   43 1    
    59   12   44 1    
    60   26   52 1    
    61   26   53 1    
    62   26   51 1    
@<TRIPOS>SUBSTRUCTURE
     1 ****       39 TEMP              0 ****  ****    0 ROOT 
