#	Name:			MXD-2011-BMC-4601-10h
#	Creating user name:	Administrator
#	Creation time:		Sun Jul 05 17:02:45 2020

#	Modifying user name:	Administrator
#	Modification time:	Sun Jul 05 17:04:11 2020

@<TRIPOS>MOLECULE
MXD-2011-BMC-4601-10h
   56    59     1     0     0
SMALL
MULLIKEN_CHARGES
INVALID_CHARGES
Gaussian 16 #p B3LYP/6-31G* opt
@<TRIPOS>ATOM
      1 C          -1.845322   -1.386014   -1.060974 C.3       1 <1>        -0.567800 
      2 C          -3.014663   -0.965981   -0.199654 C.ar      1 <1>         0.153900 
      3 C          -4.295530   -1.432671   -0.487581 C.ar      1 <1>        -0.212600 
      4 C          -5.384291   -1.059497    0.300165 C.ar      1 <1>        -0.123300 
      5 S          -7.011832   -1.678896   -0.105960 S.o2      1 <1>         1.166800 
      6 N          -7.581739   -0.568438   -1.263023 N.3       1 <1>        -0.814900 
      7 O          -6.850200   -2.948980   -0.821069 O.2       1 <1>        -0.542900 
      8 O          -7.842574   -1.556647    1.096195 O.2       1 <1>        -0.527600 
      9 C          -5.213663   -0.223758    1.400641 C.ar      1 <1>        -0.164300 
     10 C          -3.944236    0.257978    1.707935 C.ar      1 <1>        -0.154400 
     11 C          -2.847095   -0.104841    0.912272 C.ar      1 <1>         0.295000 
     12 N          -1.541199    0.356859    1.185582 N.am      1 <1>        -0.732500 
     13 C          -1.109334    1.213458    2.174432 C.2       1 <1>         0.604600 
     14 O          -1.822870    1.764947    2.992537 O.2       1 <1>        -0.471000 
     15 C           0.421734    1.409710    2.155185 C.3       1 <1>        -0.146300 
     16 O           0.859858    2.333542    3.115967 O.3       1 <1>        -0.518100 
     17 C           0.601098    3.675488    2.960770 C.ar      1 <1>         0.363000 
     18 C           0.012987    4.221487    1.795080 C.ar      1 <1>        -0.176400 
     19 C          -0.162100    5.580723    1.694163 C.ar      1 <1>        -0.198200 
     20 C           0.242956    6.459018    2.729414 C.ar      1 <1>         0.136100 
     21 C           0.058468    7.863507    2.622631 C.ar      1 <1>        -0.193200 
     22 C           0.457451    8.705788    3.633051 C.ar      1 <1>        -0.133400 
     23 C           1.061744    8.168912    4.794981 C.ar      1 <1>        -0.134500 
     24 C           1.256284    6.812738    4.930942 C.ar      1 <1>        -0.189500 
     25 C           0.853087    5.910464    3.905955 C.ar      1 <1>         0.104300 
     26 C           1.004073    4.489581    4.010937 C.ar      1 <1>        -0.065000 
     27 C           1.685452    3.892442    5.216902 C.2       1 <1>         0.341200 
     28 O           2.819385    4.243677    5.511949 O.2       1 <1>        -0.457300 
     29 C           0.951031    2.919955    6.099096 C.ar      1 <1>         0.080000 
     30 C          -0.412956    2.640704    5.945425 C.ar      1 <1>        -0.154400 
     31 C          -1.027680    1.770701    6.843265 C.ar      1 <1>        -0.086100 
     32 CL         -2.739615    1.416917    6.673520 Cl        1 <1>        -0.004800 
     33 C          -0.320470    1.167166    7.882588 C.ar      1 <1>        -0.137900 
     34 C           1.037808    1.458611    8.010979 C.ar      1 <1>         0.075500 
     35 BR          2.024629    0.636913    9.428138 Br        1 <1>        -0.114700 
     36 C           1.680236    2.327889    7.141098 C.ar      1 <1>        -0.173600 
     37 H          -2.178861   -2.047070   -1.864767 H         1 <1>         0.184400 
     38 H          -1.084714   -1.936942   -0.489766 H         1 <1>         0.167400 
     39 H          -1.349765   -0.527407   -1.535632 H         1 <1>         0.164900 
     40 H          -4.447450   -2.106797   -1.324465 H         1 <1>         0.171200 
     41 H          -7.944946   -1.093273   -2.056903 H         1 <1>         0.357200 
     42 H          -8.311493    0.010250   -0.850558 H         1 <1>         0.353900 
     43 H          -6.062375    0.036088    2.023814 H         1 <1>         0.181900 
     44 H          -3.792248    0.906005    2.559111 H         1 <1>         0.204100 
     45 H          -0.821458   -0.010714    0.577801 H         1 <1>         0.342200 
     46 H           0.765300    1.677308    1.144655 H         1 <1>         0.164400 
     47 H           0.904154    0.464545    2.427687 H         1 <1>         0.197400 
     48 H          -0.311867    3.579821    0.984533 H         1 <1>         0.132500 
     49 H          -0.621762    5.998751    0.802117 H         1 <1>         0.139700 
     50 H          -0.407176    8.258808    1.722838 H         1 <1>         0.131500 
     51 H           0.312673    9.778669    3.543912 H         1 <1>         0.133000 
     52 H           1.380262    8.836939    5.590679 H         1 <1>         0.136000 
     53 H           1.737219    6.425819    5.821172 H         1 <1>         0.155900 
     54 H          -0.987730    3.076238    5.138029 H         1 <1>         0.194900 
     55 H          -0.813991    0.491762    8.570674 H         1 <1>         0.177600 
     56 H           2.731598    2.564583    7.249431 H         1 <1>         0.184300 
@<TRIPOS>BOND
     1    1   38 1    
     2    1   37 1    
     3    1   39 1    
     4    2    1 1    
     5   15   47 1    
     6   15   46 1    
     7   12   45 1    
     8   15   16 1    
     9   13   15 1    
    10    3    2 ar   
    11    2   11 ar   
    12    3   40 1    
    13   16   17 1    
    14   12   13 1    
    15   11   12 1    
    16   18   48 1    
    17    4    3 ar   
    18   27   28 2    
    19   13   14 2    
    20   36   56 1    
    21   11   10 ar   
    22   17   18 ar   
    23   17   26 ar   
    24   18   19 ar   
    25   26   27 1    
    26   27   29 1    
    27   29   36 ar   
    28   36   34 ar   
    29   26   25 ar   
    30   34   35 1    
    31   19   49 1    
    32   19   20 ar   
    33    5    7 2    
    34   29   30 ar   
    35   34   33 ar   
    36    4    5 1    
    37    4    9 ar   
    38   25   20 ar   
    39   25   24 ar   
    40   10   44 1    
    41   10    9 ar   
    42   20   21 ar   
    43   30   54 1    
    44   30   31 ar   
    45   24   53 1    
    46   24   23 ar   
    47   33   31 ar   
    48   33   55 1    
    49    5    6 1    
    50    5    8 2    
    51    9   43 1    
    52    6   41 1    
    53   21   50 1    
    54   21   22 ar   
    55   31   32 1    
    56    6   42 1    
    57   23   22 ar   
    58   23   52 1    
    59   22   51 1    
@<TRIPOS>SUBSTRUCTURE
     1 ****       56 TEMP              0 ****  ****    0 ROOT 
