#	Name:			MXD-2011-BMC-4601-10n
#	Creating user name:	Administrator
#	Creation time:		Sun Jul 05 17:02:45 2020

#	Modifying user name:	Administrator
#	Modification time:	Sun Jul 05 17:04:11 2020

@<TRIPOS>MOLECULE
MXD-2011-BMC-4601-10n
   62    65     1     0     0
SMALL
MULLIKEN_CHARGES
INVALID_CHARGES
Gaussian 16 #p B3LYP/6-31G* opt
@<TRIPOS>ATOM
      1 C           5.799871   -1.707268   -3.061758 C.3       1 <1>        -0.531500 
      2 C           5.416016   -1.670111   -1.600409 C.ar      1 <1>         0.180300 
      3 C           6.399128   -1.508112   -0.610553 C.ar      1 <1>        -0.218000 
      4 C           6.087594   -1.467433    0.752434 C.ar      1 <1>         0.177800 
      5 C           7.173926   -1.316985    1.792659 C.3       1 <1>        -0.529800 
      6 C           4.745457   -1.591381    1.129086 C.ar      1 <1>        -0.232200 
      7 C           3.743515   -1.754346    0.164013 C.ar      1 <1>         0.092700 
      8 C           2.304448   -1.860984    0.534069 C.2       1 <1>         0.332900 
      9 O           1.424459   -1.865376   -0.319247 O.2       1 <1>        -0.463800 
     10 C           1.909441   -1.956380    1.993875 C.ar      1 <1>        -0.086000 
     11 C           1.265917   -0.871060    2.572735 C.ar      1 <1>         0.347900 
     12 O           1.164097    0.249013    1.779816 O.3       1 <1>        -0.539800 
     13 C           0.412891    1.365299    2.237421 C.3       1 <1>        -0.145900 
     14 C          -1.110339    1.164143    2.196150 C.2       1 <1>         0.587600 
     15 O          -1.824458    1.808316    2.951108 O.2       1 <1>        -0.497600 
     16 N          -1.524955    0.279903    1.234386 N.am      1 <1>        -0.726900 
     17 C          -2.840260   -0.113605    0.909052 C.ar      1 <1>         0.291300 
     18 C          -3.948628    0.335176    1.643844 C.ar      1 <1>        -0.156500 
     19 C          -5.230328   -0.085102    1.299678 C.ar      1 <1>        -0.166800 
     20 C          -5.400137   -0.953684    0.225321 C.ar      1 <1>        -0.125400 
     21 S          -7.039505   -1.504093   -0.221867 S.o2      1 <1>         1.163100 
     22 N          -7.147941   -3.044766    0.497073 N.3       1 <1>        -0.814300 
     23 O          -8.001844   -0.613264    0.436605 O.2       1 <1>        -0.530100 
     24 O          -7.070802   -1.748445   -1.667888 O.2       1 <1>        -0.545700 
     25 C          -4.304043   -1.390196   -0.519908 C.ar      1 <1>        -0.211000 
     26 C          -3.011222   -0.981426   -0.198580 C.ar      1 <1>         0.149600 
     27 C          -1.841244   -1.441029   -1.035714 C.3       1 <1>        -0.567900 
     28 C           0.775809   -0.935379    3.899968 C.ar      1 <1>        -0.188000 
     29 C           0.943865   -2.087619    4.633132 C.ar      1 <1>        -0.198200 
     30 C           1.596753   -3.220617    4.088085 C.ar      1 <1>         0.140300 
     31 C           1.761406   -4.413651    4.841904 C.ar      1 <1>        -0.221500 
     32 C           2.379626   -5.500771    4.277516 C.ar      1 <1>         0.079600 
     33 BR          2.605009   -7.106582    5.289515 Br        1 <1>        -0.125600 
     34 C           2.856608   -5.463642    2.946648 C.ar      1 <1>        -0.151300 
     35 C           2.708643   -4.318299    2.199986 C.ar      1 <1>        -0.199100 
     36 C           2.084258   -3.157572    2.740793 C.ar      1 <1>         0.119100 
     37 C           4.087857   -1.789703   -1.197323 C.ar      1 <1>        -0.222900 
     38 H           6.323863   -0.791010   -3.359944 H         1 <1>         0.166300 
     39 H           4.919012   -1.812796   -3.701816 H         1 <1>         0.163800 
     40 H           6.472725   -2.546738   -3.276456 H         1 <1>         0.166100 
     41 H           7.440036   -1.407508   -0.914966 H         1 <1>         0.125600 
     42 H           6.796669   -0.829065    2.697302 H         1 <1>         0.162200 
     43 H           7.573346   -2.294764    2.092803 H         1 <1>         0.171800 
     44 H           8.013696   -0.725587    1.413137 H         1 <1>         0.161100 
     45 H           4.478457   -1.553217    2.181156 H         1 <1>         0.142300 
     46 H           0.688796    1.671326    3.250516 H         1 <1>         0.183300 
     47 H           0.676293    2.180590    1.556155 H         1 <1>         0.197800 
     48 H          -0.777711   -0.165640    0.712830 H         1 <1>         0.374700 
     49 H          -3.795996    1.015066    2.469602 H         1 <1>         0.194400 
     50 H          -6.092328    0.270563    1.853443 H         1 <1>         0.176800 
     51 H          -7.547065   -3.684008   -0.188349 H         1 <1>         0.355100 
     52 H          -7.738138   -2.994948    1.325760 H         1 <1>         0.350200 
     53 H          -4.462082   -2.042416   -1.372813 H         1 <1>         0.167200 
     54 H          -2.182054   -2.109211   -1.831055 H         1 <1>         0.168500 
     55 H          -1.081615   -1.979979   -0.457309 H         1 <1>         0.197500 
     56 H          -1.329595   -0.596792   -1.517248 H         1 <1>         0.168900 
     57 H           0.254353   -0.093741    4.340655 H         1 <1>         0.166500 
     58 H           0.563472   -2.137925    5.649800 H         1 <1>         0.149000 
     59 H           1.391030   -4.455517    5.861164 H         1 <1>         0.157000 
     60 H           3.333405   -6.341062    2.523754 H         1 <1>         0.158300 
     61 H           3.074611   -4.303432    1.178627 H         1 <1>         0.154600 
     62 H           3.292851   -1.906637   -1.927267 H         1 <1>         0.154600 
@<TRIPOS>BOND
     1    1   40 1    
     2    1   39 1    
     3    1   38 1    
     4    2    1 1    
     5   22   51 1    
     6   27   54 1    
     7   21   24 2    
     8   25   53 1    
     9   37   62 1    
    10   34   60 1    
    11   37    2 ar   
    12    2    3 ar   
    13   21   22 1    
    14   22   52 1    
    15   35   61 1    
    16    7   37 ar   
    17   27   55 1    
    18   27   56 1    
    19   26   27 1    
    20   35   34 ar   
    21   34   32 ar   
    22   26   25 ar   
    23   25   20 ar   
    24   20   21 1    
    25   21   23 2    
    26    8    9 2    
    27    3   41 1    
    28   36   35 ar   
    29    4    3 ar   
    30   32   33 1    
    31   17   26 ar   
    32    8    7 1    
    33    7    6 ar   
    34   10    8 1    
    35   19   20 ar   
    36   31   32 ar   
    37    6    4 ar   
    38    4    5 1    
    39   10   36 ar   
    40   36   30 ar   
    41    6   45 1    
    42   11   10 ar   
    43    5   43 1    
    44   16   48 1    
    45   16   17 1    
    46   17   18 ar   
    47   30   31 ar   
    48   31   59 1    
    49   18   19 ar   
    50   19   50 1    
    51    5   44 1    
    52    5   42 1    
    53   29   30 ar   
    54   14   16 1    
    55   18   49 1    
    56   12   11 1    
    57   11   28 ar   
    58   13   12 1    
    59   28   29 ar   
    60   29   58 1    
    61   28   57 1    
    62   14   13 1    
    63   14   15 2    
    64   13   47 1    
    65   13   46 1    
@<TRIPOS>SUBSTRUCTURE
     1 ****       51 TEMP              0 ****  ****    0 ROOT 
