#	Name:			MXD-2011-BMC-4704-7m
#	Creating user name:	Administrator
#	Creation time:		Sun Jul 05 17:02:47 2020

#	Modifying user name:	Administrator
#	Modification time:	Sun Jul 05 17:04:11 2020

@<TRIPOS>MOLECULE
MXD-2011-BMC-4704-7m
   52    54     1     0     0
SMALL
MULLIKEN_CHARGES
INVALID_CHARGES
Gaussian 16 #p B3LYP/6-31G* opt
@<TRIPOS>ATOM
      1 C          -1.849515   -1.372051   -1.074022 C.3       1 <1>        -0.567600 
      2 C          -3.017908   -0.952444   -0.211360 C.ar      1 <1>         0.153900 
      3 C          -4.297431   -1.427098   -0.491684 C.ar      1 <1>        -0.211600 
      4 C          -5.385393   -1.054233    0.297782 C.ar      1 <1>        -0.124000 
      5 S          -7.010921   -1.686501   -0.096514 S.o2      1 <1>         1.166800 
      6 N          -7.577286   -0.607825   -1.284196 N.3       1 <1>        -0.814700 
      7 O          -7.843660   -1.536024    1.101196 O.2       1 <1>        -0.527300 
      8 O          -6.846694   -2.974032   -0.778839 O.2       1 <1>        -0.543200 
      9 C          -5.215426   -0.209040    1.390938 C.ar      1 <1>        -0.164300 
     10 C          -3.947251    0.281332    1.689982 C.ar      1 <1>        -0.154200 
     11 C          -2.850478   -0.083488    0.894762 C.ar      1 <1>         0.294700 
     12 N          -1.546492    0.386612    1.161350 N.am      1 <1>        -0.732500 
     13 C          -1.108149    1.207314    2.179596 C.2       1 <1>         0.600000 
     14 O          -1.812947    1.731791    3.020995 O.2       1 <1>        -0.471100 
     15 C           0.426736    1.372915    2.186695 C.3       1 <1>        -0.143700 
     16 O           0.841347    2.457421    2.977075 O.3       1 <1>        -0.512400 
     17 C           0.672282    3.738973    2.509691 C.ar      1 <1>         0.354100 
     18 C           0.116129    4.056512    1.269478 C.ar      1 <1>        -0.175600 
     19 C          -0.004111    5.391328    0.876642 C.ar      1 <1>        -0.140200 
     20 C           0.429587    6.394299    1.734471 C.ar      1 <1>        -0.062800 
     21 CL          0.276858    8.079990    1.252668 Cl        1 <1>        -0.026000 
     22 C           0.979351    6.083619    2.977874 C.ar      1 <1>        -0.196400 
     23 C           1.112096    4.756020    3.378934 C.ar      1 <1>         0.067200 
     24 C           1.651857    4.397761    4.766575 C.3       1 <1>        -0.014700 
     25 O           1.689957    5.520444    5.640889 O.3       1 <1>        -0.614800 
     26 C           3.038770    3.759546    4.763449 C.ar      1 <1>         0.207800 
     27 C           3.148360    2.425575    5.179994 C.ar      1 <1>        -0.180900 
     28 C           4.362729    1.746996    5.226661 C.ar      1 <1>        -0.130100 
     29 C           5.517295    2.425756    4.847111 C.ar      1 <1>        -0.062100 
     30 CL          7.068970    1.604085    4.892201 Cl        1 <1>        -0.013400 
     31 C           5.462954    3.752657    4.432341 C.ar      1 <1>        -0.130200 
     32 C           4.229103    4.406058    4.393845 C.ar      1 <1>        -0.119400 
     33 CL          4.260511    6.078248    3.860492 Cl        1 <1>         0.009600 
     34 H          -1.365110   -0.514781   -1.562732 H         1 <1>         0.165700 
     35 H          -1.080221   -1.907714   -0.500058 H         1 <1>         0.166800 
     36 H          -2.181180   -2.046162   -1.867699 H         1 <1>         0.184600 
     37 H          -4.448796   -2.107492   -1.323531 H         1 <1>         0.171100 
     38 H          -7.954979   -1.153949   -2.056654 H         1 <1>         0.357600 
     39 H          -8.294751   -0.004394   -0.885934 H         1 <1>         0.353800 
     40 H          -6.064042    0.052875    2.013210 H         1 <1>         0.181500 
     41 H          -3.794901    0.939317    2.533312 H         1 <1>         0.199900 
     42 H          -0.831941    0.047554    0.531762 H         1 <1>         0.340900 
     43 H           0.831364    1.441411    1.166060 H         1 <1>         0.157500 
     44 H           0.865951    0.487055    2.659006 H         1 <1>         0.195200 
     45 H          -0.248611    3.283532    0.602858 H         1 <1>         0.133800 
     46 H          -0.440047    5.640671   -0.084689 H         1 <1>         0.156700 
     47 H           1.316140    6.870528    3.641567 H         1 <1>         0.174000 
     48 H           0.974398    3.634992    5.174553 H         1 <1>         0.157300 
     49 H           0.777192    5.834772    5.746764 H         1 <1>         0.399200 
     50 H           2.243654    1.902872    5.475747 H         1 <1>         0.149000 
     51 H           4.413457    0.715530    5.557200 H         1 <1>         0.157200 
     52 H           6.364332    4.279496    4.143428 H         1 <1>         0.177300 
@<TRIPOS>BOND
     1    1   36 1    
     2    1   34 1    
     3    1   35 1    
     4    2    1 1    
     5   19   46 1    
     6    3   37 1    
     7   15   43 1    
     8   18   45 1    
     9   12   42 1    
    10    2    3 ar   
    11   11    2 ar   
    12   18   19 ar   
    13   20   19 ar   
    14    3    4 ar   
    15   17   18 ar   
    16   31   52 1    
    17    6   38 1    
    18   20   21 1    
    19   29   30 1    
    20   22   20 ar   
    21   12   11 1    
    22   13   12 1    
    23   15   44 1    
    24   16   15 1    
    25   15   13 1    
    26   31   29 ar   
    27   32   31 ar   
    28    6   39 1    
    29    5    6 1    
    30   11   10 ar   
    31    5    8 2    
    32   32   33 1    
    33   17   16 1    
    34   23   17 ar   
    35   28   29 ar   
    36   26   32 ar   
    37    4    5 1    
    38    9    4 ar   
    39   13   14 2    
    40   23   22 ar   
    41   22   47 1    
    42    5    7 2    
    43   24   23 1    
    44   28   51 1    
    45   27   28 ar   
    46   10    9 ar   
    47   10   41 1    
    48   26   27 ar   
    49   26   24 1    
    50    9   40 1    
    51   27   50 1    
    52   24   48 1    
    53   24   25 1    
    54   25   49 1    
@<TRIPOS>SUBSTRUCTURE
     1 ****       52 TEMP              0 ****  ****    0 ROOT 
