#	Name:			MXD-2011-BMC-4704-7o
#	Creating user name:	Administrator
#	Creation time:		Sun Jul 05 17:02:47 2020

#	Modifying user name:	Administrator
#	Modification time:	Sun Jul 05 17:04:11 2020

@<TRIPOS>MOLECULE
MXD-2011-BMC-4704-7o
   52    54     1     0     0
SMALL
MULLIKEN_CHARGES
INVALID_CHARGES
Gaussian 16 #p B3LYP/6-31G* opt
@<TRIPOS>ATOM
      1 C          -1.828378   -1.489389   -0.981444 C.3       1 <1>        -0.568100 
      2 C          -3.012696   -0.983728   -0.190133 C.ar      1 <1>         0.154900 
      3 C          -4.300945   -1.407412   -0.508731 C.ar      1 <1>        -0.211800 
      4 C          -5.402297   -0.947050    0.213779 C.ar      1 <1>        -0.124500 
      5 S          -7.038275   -1.517203   -0.226508 S.o2      1 <1>         1.165800 
      6 N          -7.174068   -3.002747    0.593123 N.3       1 <1>        -0.814600 
      7 O          -8.003872   -0.578366    0.354584 O.2       1 <1>        -0.528600 
      8 O          -7.037623   -1.853676   -1.653866 O.2       1 <1>        -0.543900 
      9 C          -5.241168   -0.043763    1.261127 C.ar      1 <1>        -0.165000 
     10 C          -3.963644    0.394419    1.598687 C.ar      1 <1>        -0.155400 
     11 C          -2.851351   -0.072793    0.882498 C.ar      1 <1>         0.295800 
     12 N          -1.541817    0.348092    1.185398 N.am      1 <1>        -0.724900 
     13 C          -1.103568    1.147174    2.208682 C.2       1 <1>         0.582700 
     14 O          -1.793601    1.676264    3.066665 O.2       1 <1>        -0.492700 
     15 C           0.410488    1.407407    2.182820 C.3       1 <1>        -0.146000 
     16 O           1.163182    0.480795    1.404181 O.3       1 <1>        -0.546200 
     17 C           1.570606   -0.702603    1.986947 C.ar      1 <1>         0.328900 
     18 C           1.032555   -1.215141    3.168393 C.ar      1 <1>        -0.182500 
     19 C           1.486902   -2.439007    3.666970 C.ar      1 <1>        -0.142300 
     20 C           2.462134   -3.140147    2.967719 C.ar      1 <1>        -0.061900 
     21 CL          3.026368   -4.690256    3.574965 Cl        1 <1>        -0.016600 
     22 C           2.996945   -2.633559    1.782139 C.ar      1 <1>        -0.202700 
     23 C           2.571315   -1.403149    1.286512 C.ar      1 <1>         0.074800 
     24 C           3.154884   -0.827812   -0.001861 C.3       1 <1>         0.010200 
     25 O           3.952739   -1.783529   -0.703693 O.3       1 <1>        -0.609600 
     26 C           3.942878    0.463378    0.198176 C.ar      1 <1>         0.151600 
     27 C           3.991886    1.411414   -0.831164 C.ar      1 <1>        -0.166500 
     28 C           4.773528    2.554712   -0.708161 C.ar      1 <1>        -0.129000 
     29 C           5.529855    2.770928    0.447350 C.ar      1 <1>        -0.076400 
     30 CL          6.495174    4.220695    0.565095 Cl        1 <1>         0.023200 
     31 C           5.493485    1.826095    1.479978 C.ar      1 <1>        -0.076400 
     32 CL          6.415712    2.042724    2.948240 Cl        1 <1>         0.021800 
     33 C           4.703263    0.681359    1.349458 C.ar      1 <1>        -0.192200 
     34 H          -2.153462   -2.191048   -1.753624 H         1 <1>         0.180900 
     35 H          -1.293510   -0.675596   -1.491115 H         1 <1>         0.166700 
     36 H          -1.103349   -2.017547   -0.347418 H         1 <1>         0.174600 
     37 H          -4.452605   -2.092609   -1.336599 H         1 <1>         0.170000 
     38 H          -7.528369   -3.696734   -0.063007 H         1 <1>         0.356900 
     39 H          -7.806557   -2.900748    1.384884 H         1 <1>         0.352900 
     40 H          -6.107689    0.327242    1.797362 H         1 <1>         0.180000 
     41 H          -3.815783    1.096139    2.407423 H         1 <1>         0.197200 
     42 H          -0.802951   -0.001394    0.588549 H         1 <1>         0.361300 
     43 H           0.578892    2.384459    1.718540 H         1 <1>         0.202100 
     44 H           0.769307    1.454972    3.214995 H         1 <1>         0.190600 
     45 H           0.253711   -0.685629    3.705889 H         1 <1>         0.167100 
     46 H           1.071729   -2.841711    4.584303 H         1 <1>         0.165700 
     47 H           3.733663   -3.200791    1.226115 H         1 <1>         0.162800 
     48 H           2.324176   -0.609030   -0.682067 H         1 <1>         0.155800 
     49 H           4.855210   -1.730267   -0.349868 H         1 <1>         0.396200 
     50 H           3.415349    1.252775   -1.738330 H         1 <1>         0.149500 
     51 H           4.806680    3.291565   -1.503586 H         1 <1>         0.167600 
     52 H           4.680117   -0.030785    2.167893 H         1 <1>         0.170000 
@<TRIPOS>BOND
     1   13   14 2    
     2   15   44 1    
     3   10   41 1    
     4   18   45 1    
     5   19   46 1    
     6    9   40 1    
     7   15   13 1    
     8   13   12 1    
     9   15   43 1    
    10   16   15 1    
    11   18   19 ar   
    12   17   18 ar   
    13   10    9 ar   
    14   11   10 ar   
    15   31   32 1    
    16   20   19 ar   
    17    9    4 ar   
    18    6   39 1    
    19    5    7 2    
    20   12   11 1    
    21   12   42 1    
    22   17   16 1    
    23   23   17 ar   
    24   11    2 ar   
    25   20   21 1    
    26   22   20 ar   
    27   33   52 1    
    28   33   31 ar   
    29   31   29 ar   
    30   29   30 1    
    31    4    5 1    
    32    3    4 ar   
    33    5    6 1    
    34    6   38 1    
    35   26   33 ar   
    36    5    8 2    
    37   29   28 ar   
    38   23   22 ar   
    39   24   23 1    
    40   22   47 1    
    41    2    3 ar   
    42    2    1 1    
    43    3   37 1    
    44   26   24 1    
    45   26   27 ar   
    46   28   27 ar   
    47   28   51 1    
    48    1   36 1    
    49   24   48 1    
    50   24   25 1    
    51   27   50 1    
    52    1   35 1    
    53    1   34 1    
    54   25   49 1    
@<TRIPOS>SUBSTRUCTURE
     1 ****       32 TEMP              0 ****  ****    0 ROOT 
