#	Name:			MXD-2011-BMC-4704-7e
#	Creating user name:	Administrator
#	Creation time:		Sun Jul 05 17:02:46 2020

#	Modifying user name:	Administrator
#	Modification time:	Sun Jul 05 17:04:11 2020

@<TRIPOS>MOLECULE
MXD-2011-BMC-4704-7e
   52    54     1     0     0
SMALL
MULLIKEN_CHARGES
INVALID_CHARGES
Gaussian 16 #p B3LYP/6-31G* opt
@<TRIPOS>ATOM
      1 C          -1.819634   -1.464645   -0.972685 C.3       1 <1>        -0.565600 
      2 C          -3.010909   -0.936514   -0.207773 C.ar      1 <1>         0.152000 
      3 C          -4.284896   -1.449303   -0.454344 C.ar      1 <1>        -0.215300 
      4 C          -5.385297   -1.015608    0.284763 C.ar      1 <1>        -0.123100 
      5 S          -6.999918   -1.698028   -0.066150 S.o2      1 <1>         1.165100 
      6 N          -7.577720   -0.719724   -1.336205 N.3       1 <1>        -0.815800 
      7 O          -6.819128   -3.033648   -0.644729 O.2       1 <1>        -0.543000 
      8 O          -7.846856   -1.462918    1.108198 O.2       1 <1>        -0.530700 
      9 C          -5.238725   -0.075059    1.301756 C.ar      1 <1>        -0.166300 
     10 C          -3.979333    0.459748    1.554981 C.ar      1 <1>        -0.137400 
     11 C          -2.872015    0.048183    0.799194 C.ar      1 <1>         0.269300 
     12 N          -1.589940    0.605370    1.019498 N.am      1 <1>        -0.726000 
     13 C          -1.107102    1.107106    2.202295 C.2       1 <1>         0.577400 
     14 O          -1.712338    1.154709    3.261787 O.2       1 <1>        -0.491500 
     15 C           0.360994    1.557557    2.136094 C.3       1 <1>        -0.145100 
     16 O           0.760230    2.028496    0.854858 O.3       1 <1>        -0.536000 
     17 C           0.361141    3.274321    0.433519 C.ar      1 <1>         0.350000 
     18 C          -0.074291    4.291721    1.284023 C.ar      1 <1>        -0.175500 
     19 C          -0.420597    5.540105    0.761501 C.ar      1 <1>        -0.137400 
     20 C          -0.329944    5.760712   -0.607727 C.ar      1 <1>        -0.063900 
     21 CL         -0.762167    7.329991   -1.271607 Cl        1 <1>        -0.017800 
     22 C           0.090425    4.744448   -1.466340 C.ar      1 <1>        -0.198500 
     23 C           0.437051    3.492507   -0.958493 C.ar      1 <1>         0.061500 
     24 C           0.758153    2.309220   -1.862075 C.3       1 <1>        -0.001900 
     25 O          -0.403535    1.456108   -1.921436 O.3       1 <1>        -0.618700 
     26 C           1.262632    2.684870   -3.249469 C.ar      1 <1>         0.138100 
     27 C           0.458692    2.515580   -4.382823 C.ar      1 <1>        -0.179600 
     28 C           0.911901    2.855359   -5.657329 C.ar      1 <1>        -0.126300 
     29 C           2.197070    3.369179   -5.823705 C.ar      1 <1>        -0.122600 
     30 C           3.026346    3.534887   -4.714724 C.ar      1 <1>        -0.130500 
     31 C           2.555527    3.192520   -3.448575 C.ar      1 <1>        -0.119900 
     32 CL          3.647256    3.399853   -2.079143 Cl        1 <1>        -0.009200 
     33 H          -2.120297   -2.292141   -1.621027 H         1 <1>         0.166200 
     34 H          -1.347473   -0.700655   -1.601545 H         1 <1>         0.194400 
     35 H          -1.047387   -1.840088   -0.289064 H         1 <1>         0.166100 
     36 H          -4.417920   -2.217819   -1.209035 H         1 <1>         0.168600 
     37 H          -7.912527   -1.330649   -2.079412 H         1 <1>         0.355300 
     38 H          -8.332982   -0.129937   -0.990916 H         1 <1>         0.352000 
     39 H          -6.095949    0.227642    1.892815 H         1 <1>         0.177100 
     40 H          -3.842783    1.182590    2.347363 H         1 <1>         0.179700 
     41 H          -0.965166    0.653764    0.218210 H         1 <1>         0.377600 
     42 H           1.002000    0.692283    2.333069 H         1 <1>         0.195400 
     43 H           0.531721    2.286866    2.931423 H         1 <1>         0.183400 
     44 H          -0.156134    4.133731    2.352814 H         1 <1>         0.162100 
     45 H          -0.757508    6.331396    1.422420 H         1 <1>         0.164800 
     46 H           0.149526    4.930607   -2.533061 H         1 <1>         0.169200 
     47 H           1.516558    1.693861   -1.374461 H         1 <1>         0.189200 
     48 H          -1.177760    2.030387   -2.043762 H         1 <1>         0.399800 
     49 H          -0.528088    2.082607   -4.258893 H         1 <1>         0.134600 
     50 H           0.263334    2.711242   -6.516363 H         1 <1>         0.142600 
     51 H           2.562157    3.635202   -6.811544 H         1 <1>         0.145500 
     52 H           4.033775    3.922164   -4.823563 H         1 <1>         0.160400 
@<TRIPOS>BOND
     1   15   42 1    
     2    1   35 1    
     3   15   43 1    
     4   15   16 1    
     5   13   15 1    
     6    1   33 1    
     7    1   34 1    
     8    2    1 1    
     9   16   17 1    
    10   13   14 2    
    11   12   13 1    
    12   24   47 1    
    13   31   32 1    
    14   12   41 1    
    15   11   12 1    
    16    2   11 ar   
    17    3    2 ar   
    18   10   11 ar   
    19    3   36 1    
    20   24   25 1    
    21   24   26 1    
    22   23   24 1    
    23   31   30 ar   
    24   26   31 ar   
    25    4    3 ar   
    26   30   52 1    
    27   17   23 ar   
    28   17   18 ar   
    29   25   48 1    
    30   18   44 1    
    31   30   29 ar   
    32   26   27 ar   
    33   10   40 1    
    34    9   10 ar   
    35    5    7 2    
    36   23   22 ar   
    37   18   19 ar   
    38    4    9 ar   
    39    4    5 1    
    40    9   39 1    
    41   27   49 1    
    42   27   28 ar   
    43   29   51 1    
    44   29   28 ar   
    45    5    8 2    
    46    5    6 1    
    47   28   50 1    
    48   22   46 1    
    49   22   20 ar   
    50   19   45 1    
    51   19   20 ar   
    52   20   21 1    
    53    6   37 1    
    54    6   38 1    
@<TRIPOS>SUBSTRUCTURE
     1 ****       35 TEMP              0 ****  ****    0 ROOT 
