#	Name:			MXD-2011-BMC-4704-7g
#	Creating user name:	Administrator
#	Creation time:		Sun Jul 05 17:02:46 2020

#	Modifying user name:	Administrator
#	Modification time:	Sun Jul 05 17:04:11 2020

@<TRIPOS>MOLECULE
MXD-2011-BMC-4704-7g
   52    54     1     0     0
SMALL
MULLIKEN_CHARGES
INVALID_CHARGES
Gaussian 16 #p B3LYP/6-31G* opt
@<TRIPOS>ATOM
      1 C          -1.833367   -1.462614   -1.003092 C.3       1 <1>        -0.567600 
      2 C          -3.014503   -0.967980   -0.199525 C.ar      1 <1>         0.154000 
      3 C          -4.301370   -1.399649   -0.513594 C.ar      1 <1>        -0.212000 
      4 C          -5.402504   -0.949093    0.214501 C.ar      1 <1>        -0.123700 
      5 S          -7.036908   -1.529564   -0.220485 S.o2      1 <1>         1.166900 
      6 N          -7.170616   -3.002326    0.621274 N.3       1 <1>        -0.814800 
      7 O          -7.030549   -1.886254   -1.642823 O.2       1 <1>        -0.543000 
      8 O          -8.004778   -0.584565    0.345776 O.2       1 <1>        -0.527400 
      9 C          -5.242224   -0.045871    1.261880 C.ar      1 <1>        -0.164200 
     10 C          -3.966350    0.399801    1.595900 C.ar      1 <1>        -0.153800 
     11 C          -2.853477   -0.060134    0.875914 C.ar      1 <1>         0.294600 
     12 N          -1.541888    0.365118    1.177687 N.am      1 <1>        -0.732700 
     13 C          -1.104612    1.177337    2.202845 C.2       1 <1>         0.602100 
     14 O          -1.814291    1.731906    3.020366 O.2       1 <1>        -0.471300 
     15 C           0.434621    1.291114    2.250057 C.3       1 <1>        -0.144100 
     16 O           0.867580    2.336226    3.082507 O.3       1 <1>        -0.517000 
     17 C           0.682427    3.643153    2.685373 C.ar      1 <1>         0.347800 
     18 C           0.234623    4.015557    1.415350 C.ar      1 <1>        -0.171900 
     19 C           0.115146    5.364860    1.080299 C.ar      1 <1>        -0.140300 
     20 C           0.441367    6.332837    2.024409 C.ar      1 <1>        -0.061000 
     21 CL          0.291837    8.036617    1.611522 Cl        1 <1>        -0.023900 
     22 C           0.873871    5.968220    3.297148 C.ar      1 <1>        -0.189500 
     23 C           0.998539    4.622129    3.644272 C.ar      1 <1>         0.070300 
     24 C           1.446235    4.245386    5.059237 C.3       1 <1>         0.014200 
     25 O           0.875509    5.128958    6.020501 O.3       1 <1>        -0.633400 
     26 C           2.962427    4.302398    5.210058 C.ar      1 <1>         0.126200 
     27 C           3.762365    3.327745    4.597450 C.ar      1 <1>        -0.172000 
     28 C           5.150628    3.379506    4.714535 C.ar      1 <1>        -0.134700 
     29 C           5.765903    4.399003    5.444083 C.ar      1 <1>        -0.195000 
     30 C           4.953484    5.350741    6.045908 C.ar      1 <1>         0.384700 
     31 F           5.530380    6.341339    6.761724 F         1 <1>        -0.300700 
     32 C           3.567056    5.324850    5.945677 C.ar      1 <1>        -0.245900 
     33 H          -1.106499   -2.005034   -0.381992 H         1 <1>         0.165200 
     34 H          -1.298942   -0.642953   -1.503956 H         1 <1>         0.166600 
     35 H          -2.162606   -2.151721   -1.784708 H         1 <1>         0.184600 
     36 H          -4.452476   -2.082487   -1.343566 H         1 <1>         0.171200 
     37 H          -7.811617   -2.892057    1.405206 H         1 <1>         0.353900 
     38 H          -7.513231   -3.709891   -0.026549 H         1 <1>         0.357500 
     39 H          -6.108415    0.320501    1.801860 H         1 <1>         0.181700 
     40 H          -3.821595    1.103222    2.403273 H         1 <1>         0.199800 
     41 H          -0.821307   -0.009672    0.575746 H         1 <1>         0.340600 
     42 H           0.861946    1.373226    1.239473 H         1 <1>         0.156800 
     43 H           0.834256    0.377931    2.704991 H         1 <1>         0.195700 
     44 H          -0.040184    3.271698    0.676256 H         1 <1>         0.133600 
     45 H          -0.234668    5.654440    0.095438 H         1 <1>         0.157800 
     46 H           1.105353    6.726080    4.037251 H         1 <1>         0.172000 
     47 H           1.121039    3.215779    5.253456 H         1 <1>         0.162200 
     48 H          -0.087023    5.095978    5.905332 H         1 <1>         0.402100 
     49 H           3.293377    2.529575    4.029971 H         1 <1>         0.133900 
     50 H           5.762297    2.618254    4.238042 H         1 <1>         0.132400 
     51 H           6.843439    4.461102    5.553839 H         1 <1>         0.142500 
     52 H           2.973511    6.080123    6.445476 H         1 <1>         0.169000 
@<TRIPOS>BOND
     1    1   34 1    
     2    1   35 1    
     3    1   33 1    
     4    2    1 1    
     5   19   45 1    
     6   15   42 1    
     7   18   44 1    
     8   12   41 1    
     9   28   50 1    
    10    3   36 1    
    11   18   19 ar   
    12   20   19 ar   
    13    2    3 ar   
    14   11    2 ar   
    15   17   18 ar   
    16    3    4 ar   
    17   29   51 1    
    18   28   29 ar   
    19   27   28 ar   
    20   20   21 1    
    21   15   43 1    
    22   16   15 1    
    23   15   13 1    
    24   12   11 1    
    25   13   12 1    
    26   22   20 ar   
    27   27   49 1    
    28    5    7 2    
    29   30   29 ar   
    30   11   10 ar   
    31   17   16 1    
    32   23   17 ar   
    33   26   27 ar   
    34   13   14 2    
    35   23   22 ar   
    36   22   46 1    
    37    4    5 1    
    38    4    9 ar   
    39   24   23 1    
    40   30   31 1    
    41   32   30 ar   
    42    5    6 1    
    43    5    8 2    
    44   26   32 ar   
    45   26   24 1    
    46   10    9 ar   
    47   10   40 1    
    48    6   38 1    
    49   32   52 1    
    50    9   39 1    
    51   24   47 1    
    52   24   25 1    
    53    6   37 1    
    54   25   48 1    
@<TRIPOS>SUBSTRUCTURE
     1 ****       50 TEMP              0 ****  ****    0 ROOT 
