#	Name:			MXD-2011-BMC-4601-10j
#	Creating user name:	Administrator
#	Creation time:		Sun Jul 05 17:02:45 2020

#	Modifying user name:	Administrator
#	Modification time:	Sun Jul 05 17:04:11 2020

@<TRIPOS>MOLECULE
MXD-2011-BMC-4601-10j
   56    59     1     0     0
SMALL
MULLIKEN_CHARGES
INVALID_CHARGES
Gaussian 16 #p B3LYP/6-31G* opt
@<TRIPOS>ATOM
      1 C          -1.814967   -1.514330   -0.978458 C.3       1 <1>        -0.580700 
      2 C          -2.993465   -1.004933   -0.183966 C.ar      1 <1>         0.155000 
      3 C          -4.276114   -1.482789   -0.452668 C.ar      1 <1>        -0.229400 
      4 C          -5.374274   -1.055933    0.295286 C.ar      1 <1>        -0.142500 
      5 S          -7.011698   -1.668142   -0.109507 S.o2      1 <1>         1.160300 
      6 N          -7.695519   -0.572712   -1.199618 N.3       1 <1>        -0.785300 
      7 O          -6.844463   -2.910233   -0.863812 O.2       1 <1>        -0.530200 
      8 O          -7.830825   -1.573427    1.097868 O.2       1 <1>        -0.527500 
      9 C          -5.207951   -0.151105    1.342788 C.ar      1 <1>        -0.174500 
     10 C          -3.940193    0.348101    1.624237 C.ar      1 <1>        -0.151300 
     11 C          -2.834417   -0.063541    0.861849 C.ar      1 <1>         0.290300 
     12 N          -1.537824    0.434985    1.107067 N.am      1 <1>        -0.736400 
     13 C          -1.107704    1.171070    2.176552 C.2       1 <1>         0.586200 
     14 O          -1.781641    1.542528    3.126393 O.2       1 <1>        -0.497400 
     15 C           0.368239    1.577687    2.142672 C.3       1 <1>        -0.122300 
     16 O           1.059519    0.942145    1.073827 O.3       1 <1>        -0.547400 
     17 C           2.265975    1.443624    0.662632 C.ar      1 <1>         0.367200 
     18 C           3.036342    2.310882    1.475851 C.ar      1 <1>        -0.189700 
     19 C           4.254058    2.768727    1.031233 C.ar      1 <1>        -0.193600 
     20 C           4.764649    2.388897   -0.234379 C.ar      1 <1>         0.138100 
     21 C           6.011829    2.882225   -0.702603 C.ar      1 <1>        -0.220700 
     22 C           6.474668    2.511827   -1.939876 C.ar      1 <1>         0.079800 
     23 BR          8.151476    3.172380   -2.573435 Br        1 <1>        -0.121900 
     24 C           5.725592    1.647008   -2.770228 C.ar      1 <1>        -0.150800 
     25 C           4.517425    1.155290   -2.334032 C.ar      1 <1>        -0.198100 
     26 C           3.996492    1.495350   -1.052041 C.ar      1 <1>         0.115500 
     27 C           2.738456    1.016066   -0.573683 C.ar      1 <1>        -0.081300 
     28 C           1.861017    0.115797   -1.413183 C.2       1 <1>         0.326300 
     29 O           0.772228    0.524135   -1.802586 O.2       1 <1>        -0.462000 
     30 C           2.325664   -1.266476   -1.735424 C.ar      1 <1>         0.074600 
     31 C           1.650351   -1.986586   -2.735806 C.ar      1 <1>        -0.156500 
     32 C           2.032535   -3.288485   -3.042723 C.ar      1 <1>        -0.134300 
     33 C           3.085272   -3.890409   -2.345516 C.ar      1 <1>        -0.116600 
     34 C           3.757470   -3.184955   -1.345263 C.ar      1 <1>        -0.133700 
     35 C           3.384799   -1.875819   -1.044382 C.ar      1 <1>        -0.166400 
     36 H          -1.068989   -1.993029   -0.330198 H         1 <1>         0.169700 
     37 H          -1.297215   -0.719851   -1.530125 H         1 <1>         0.201800 
     38 H          -2.142272   -2.262413   -1.705703 H         1 <1>         0.166100 
     39 H          -4.420768   -2.221296   -1.235231 H         1 <1>         0.170000 
     40 H          -7.175118   -0.525976   -2.072425 H         1 <1>         0.345100 
     41 H          -7.829512    0.346369   -0.784479 H         1 <1>         0.346300 
     42 H          -6.058836    0.146661    1.946868 H         1 <1>         0.175300 
     43 H          -3.790867    1.041707    2.439113 H         1 <1>         0.195900 
     44 H          -0.826630    0.240838    0.410899 H         1 <1>         0.384700 
     45 H           0.404219    2.669147    2.037315 H         1 <1>         0.186900 
     46 H           0.801407    1.310431    3.113794 H         1 <1>         0.184600 
     47 H           2.674627    2.606752    2.453742 H         1 <1>         0.155500 
     48 H           4.841781    3.434225    1.657786 H         1 <1>         0.149700 
     49 H           6.587243    3.555563   -0.075570 H         1 <1>         0.157700 
     50 H           6.108075    1.379802   -3.749181 H         1 <1>         0.160200 
     51 H           3.952082    0.500478   -2.987858 H         1 <1>         0.154800 
     52 H           0.834212   -1.503105   -3.262599 H         1 <1>         0.163000 
     53 H           1.512436   -3.837330   -3.822906 H         1 <1>         0.145400 
     54 H           3.380657   -4.908919   -2.582849 H         1 <1>         0.146200 
     55 H           4.571855   -3.654059   -0.800597 H         1 <1>         0.145100 
     56 H           3.907046   -1.328151   -0.266379 H         1 <1>         0.153200 
@<TRIPOS>BOND
     1   34   55 1    
     2   33   54 1    
     3   34   33 ar   
     4   35   34 ar   
     5   15   46 1    
     6   35   56 1    
     7   32   33 ar   
     8   30   35 ar   
     9   18   47 1    
    10   13   14 2    
    11   13   15 1    
    12   15   16 1    
    13   15   45 1    
    14    1   36 1    
    15   12   13 1    
    16   18   19 ar   
    17   17   18 ar   
    18   19   48 1    
    19   16   17 1    
    20   19   20 ar   
    21   32   53 1    
    22   31   32 ar   
    23   17   27 ar   
    24   30   31 ar   
    25   28   30 1    
    26   12   44 1    
    27   11   12 1    
    28   10   43 1    
    29   10   11 ar   
    30    9   10 ar   
    31    2   11 ar   
    32   20   21 ar   
    33   26   20 ar   
    34   27   26 ar   
    35   27   28 1    
    36   21   49 1    
    37    2    1 1    
    38    1   38 1    
    39    1   37 1    
    40   31   52 1    
    41    9   42 1    
    42    3    2 ar   
    43    4    9 ar   
    44    5    8 2    
    45   21   22 ar   
    46   26   25 ar   
    47   28   29 2    
    48    4    3 ar   
    49    3   39 1    
    50    4    5 1    
    51    5    7 2    
    52   22   24 ar   
    53   22   23 1    
    54    5    6 1    
    55   25   51 1    
    56   25   24 ar   
    57   24   50 1    
    58    6   41 1    
    59    6   40 1    
@<TRIPOS>SUBSTRUCTURE
     1 ****       36 TEMP              0 ****  ****    0 ROOT 
