#	Name:			MXD-2011-BMC-4704-7b
#	Creating user name:	Administrator
#	Creation time:		Sun Jul 05 17:02:46 2020

#	Modifying user name:	Administrator
#	Modification time:	Sun Jul 05 17:04:11 2020

@<TRIPOS>MOLECULE
MXD-2011-BMC-4704-7b
   55    57     1     0     0
SMALL
MULLIKEN_CHARGES
INVALID_CHARGES
Gaussian 16 #p B3LYP/6-31G* opt
@<TRIPOS>ATOM
      1 C          -1.814697   -1.475721   -0.988398 C.3       1 <1>        -0.568000 
      2 C          -2.999422   -0.972813   -0.195242 C.ar      1 <1>         0.156200 
      3 C          -4.286505   -1.404170   -0.514931 C.ar      1 <1>        -0.227900 
      4 C          -5.394259   -0.943505    0.197365 C.ar      1 <1>        -0.141600 
      5 S          -7.032602   -1.543669   -0.230801 S.o2      1 <1>         1.164100 
      6 N          -7.360043   -2.861941    0.768373 N.3       1 <1>        -0.785300 
      7 O          -7.991512   -0.512720    0.160773 O.2       1 <1>        -0.523900 
      8 O          -6.953428   -2.091885   -1.584175 O.2       1 <1>        -0.527700 
      9 C          -5.235737   -0.028417    1.237346 C.ar      1 <1>        -0.171800 
     10 C          -3.961756    0.414483    1.578834 C.ar      1 <1>        -0.152700 
     11 C          -2.843433   -0.056150    0.872307 C.ar      1 <1>         0.293400 
     12 N          -1.533829    0.371762    1.178436 N.am      1 <1>        -0.731800 
     13 C          -1.099501    1.172392    2.214702 C.2       1 <1>         0.600800 
     14 O          -1.814620    1.701122    3.044806 O.2       1 <1>        -0.466700 
     15 C           0.438529    1.308462    2.247286 C.3       1 <1>        -0.143400 
     16 O           0.873150    2.308819    3.128247 O.3       1 <1>        -0.514500 
     17 C           0.708367    3.634544    2.788910 C.ar      1 <1>         0.333100 
     18 C           0.167107    4.060966    1.571769 C.ar      1 <1>        -0.173100 
     19 C           0.070276    5.421991    1.284634 C.ar      1 <1>        -0.142600 
     20 C           0.513479    6.349556    2.222603 C.ar      1 <1>        -0.062800 
     21 CL          0.398370    8.068763    1.865980 Cl        1 <1>        -0.023900 
     22 C           1.039537    5.931446    3.441260 C.ar      1 <1>        -0.178600 
     23 C           1.140965    4.571823    3.746442 C.ar      1 <1>         0.074400 
     24 C           1.791205    4.136920    5.063670 C.3       1 <1>         0.008400 
     25 O           3.191881    4.441365    5.034967 O.3       1 <1>        -0.627500 
     26 C           1.182473    4.825103    6.277066 C.ar      1 <1>         0.069900 
     27 C           1.853487    5.895557    6.878527 C.ar      1 <1>        -0.180000 
     28 C           1.308531    6.557190    7.979889 C.ar      1 <1>        -0.135400 
     29 C           0.080876    6.145494    8.492896 C.ar      1 <1>        -0.120300 
     30 C          -0.585661    5.071159    7.902802 C.ar      1 <1>        -0.190100 
     31 C          -0.057198    4.393688    6.797629 C.ar      1 <1>         0.144100 
     32 C          -0.812336    3.224001    6.208122 C.3       1 <1>        -0.546500 
     33 H          -2.139978   -2.174890   -1.762866 H         1 <1>         0.185300 
     34 H          -1.280749   -0.661400   -1.498405 H         1 <1>         0.168400 
     35 H          -1.088023   -2.007654   -0.358170 H         1 <1>         0.164700 
     36 H          -4.435503   -2.089596   -1.343473 H         1 <1>         0.175300 
     37 H          -7.419770   -2.602746    1.749830 H         1 <1>         0.349300 
     38 H          -6.727155   -3.641402    0.607977 H         1 <1>         0.346900 
     39 H          -6.104216    0.356631    1.761935 H         1 <1>         0.180500 
     40 H          -3.821293    1.126425    2.379580 H         1 <1>         0.201900 
     41 H          -0.812110    0.012337    0.568478 H         1 <1>         0.341300 
     42 H           0.858702    0.375471    2.639993 H         1 <1>         0.194200 
     43 H           0.842612    1.454848    1.233815 H         1 <1>         0.156400 
     44 H          -0.197446    3.350145    0.839106 H         1 <1>         0.133600 
     45 H          -0.352954    5.753062    0.342446 H         1 <1>         0.158100 
     46 H           1.368262    6.662472    4.171811 H         1 <1>         0.172600 
     47 H           1.655938    3.055194    5.167058 H         1 <1>         0.150600 
     48 H           3.545188    4.074823    4.209867 H         1 <1>         0.392200 
     49 H           2.818043    6.194582    6.483854 H         1 <1>         0.153800 
     50 H           1.845632    7.386111    8.433293 H         1 <1>         0.125500 
     51 H          -0.356027    6.650523    9.350600 H         1 <1>         0.124600 
     52 H          -1.539785    4.742993    8.309342 H         1 <1>         0.119400 
     53 H          -0.223012    2.298581    6.246871 H         1 <1>         0.155700 
     54 H          -1.080853    3.375177    5.157177 H         1 <1>         0.190900 
     55 H          -1.738606    3.045814    6.763208 H         1 <1>         0.150400 
@<TRIPOS>BOND
     1    1   35 1    
     2   15   42 1    
     3    1   33 1    
     4   25   48 1    
     5    1   34 1    
     6    2    1 1    
     7   15   43 1    
     8   15   16 1    
     9   13   15 1    
    10   12   41 1    
    11   24   25 1    
    12   24   47 1    
    13   16   17 1    
    14   12   13 1    
    15   11   12 1    
    16   32   53 1    
    17   24   26 1    
    18   23   24 1    
    19    2   11 ar   
    20    3    2 ar   
    21   13   14 2    
    22    3   36 1    
    23   10   11 ar   
    24    6   38 1    
    25   17   23 ar   
    26   17   18 ar   
    27    4    3 ar   
    28   27   49 1    
    29   26   27 ar   
    30   26   31 ar   
    31   23   22 ar   
    32   31   32 1    
    33   32   54 1    
    34   32   55 1    
    35   27   28 ar   
    36   18   44 1    
    37   31   30 ar   
    38   18   19 ar   
    39    6   37 1    
    40    5    6 1    
    41   10   40 1    
    42    9   10 ar   
    43    4    9 ar   
    44    4    5 1    
    45   28   50 1    
    46   28   29 ar   
    47   22   46 1    
    48   22   20 ar   
    49   30   29 ar   
    50   30   52 1    
    51    5    8 2    
    52    9   39 1    
    53   29   51 1    
    54    5    7 2    
    55   19   20 ar   
    56   19   45 1    
    57   20   21 1    
@<TRIPOS>SUBSTRUCTURE
     1 ****       53 TEMP              0 ****  ****    0 ROOT 
