#	Name:			MXD-2011-BMC-4601-10r
#	Creating user name:	Administrator
#	Creation time:		Sun Jul 05 17:02:46 2020

#	Modifying user name:	Administrator
#	Modification time:	Sun Jul 05 17:04:11 2020

@<TRIPOS>MOLECULE
MXD-2011-BMC-4601-10r
   56    59     1     0     0
SMALL
MULLIKEN_CHARGES
INVALID_CHARGES
Gaussian 16 #p B3LYP/6-31G* opt
@<TRIPOS>ATOM
      1 C          -1.843133   -1.389131   -1.062294 C.3       1 <1>        -0.571100 
      2 C          -3.014222   -0.962138   -0.207433 C.ar      1 <1>         0.152700 
      3 C          -4.296435   -1.427260   -0.492363 C.ar      1 <1>        -0.212200 
      4 C          -5.384266   -1.056440    0.299121 C.ar      1 <1>        -0.123600 
      5 S          -7.012379   -1.674238   -0.103868 S.o2      1 <1>         1.165200 
      6 N          -7.562446   -0.594817   -1.300085 N.3       1 <1>        -0.814700 
      7 O          -6.859188   -2.967232   -0.778700 O.2       1 <1>        -0.543600 
      8 O          -7.854935   -1.509067    1.085651 O.2       1 <1>        -0.530400 
      9 C          -5.213293   -0.225303    1.402902 C.ar      1 <1>        -0.165900 
     10 C          -3.942788    0.254318    1.708438 C.ar      1 <1>        -0.155900 
     11 C          -2.848273   -0.103042    0.907043 C.ar      1 <1>         0.292400 
     12 N          -1.545940    0.364883    1.175481 N.am      1 <1>        -0.723700 
     13 C          -1.113665    1.203944    2.168351 C.2       1 <1>         0.588000 
     14 O          -1.791899    1.690910    3.060370 O.2       1 <1>        -0.494000 
     15 C           0.400047    1.471840    2.124066 C.3       1 <1>        -0.149000 
     16 O           0.975560    1.335120    0.827819 O.3       1 <1>        -0.550200 
     17 C           0.764573    2.319846   -0.114284 C.ar      1 <1>         0.347400 
     18 C           0.068390    3.524486    0.149212 C.ar      1 <1>        -0.187300 
     19 C          -0.092765    4.447647   -0.858459 C.ar      1 <1>        -0.196000 
     20 C           0.410273    4.216029   -2.163304 C.ar      1 <1>         0.138100 
     21 C           0.241254    5.169718   -3.202540 C.ar      1 <1>        -0.221100 
     22 C           0.727543    4.906677   -4.458595 C.ar      1 <1>         0.081100 
     23 BR          0.504733    6.187267   -5.858138 Br        1 <1>        -0.119300 
     24 C           1.395306    3.693799   -4.747325 C.ar      1 <1>        -0.149600 
     25 C           1.570470    2.756860   -3.756013 C.ar      1 <1>        -0.194800 
     26 C           1.090975    2.984433   -2.435236 C.ar      1 <1>         0.120600 
     27 C           1.270660    2.047728   -1.376131 C.ar      1 <1>        -0.085000 
     28 C           1.919368    0.706362   -1.633051 C.2       1 <1>         0.334100 
     29 O           1.307109   -0.158803   -2.242936 O.2       1 <1>        -0.454300 
     30 C           3.318678    0.464346   -1.155771 C.ar      1 <1>         0.091500 
     31 C           4.073935    1.473681   -0.546228 C.ar      1 <1>        -0.160200 
     32 C           5.374862    1.192130   -0.136278 C.ar      1 <1>        -0.077000 
     33 CL          6.330085    2.449739    0.628218 Cl        1 <1>         0.003600 
     34 C           5.939656   -0.069590   -0.318816 C.ar      1 <1>        -0.134900 
     35 C           5.168037   -1.059647   -0.930571 C.ar      1 <1>         0.076500 
     36 BR          5.929854   -2.790807   -1.186726 Br        1 <1>        -0.097800 
     37 C           3.869270   -0.810619   -1.352559 C.ar      1 <1>        -0.172600 
     38 H          -2.178217   -2.048936   -1.866702 H         1 <1>         0.176800 
     39 H          -1.094101   -1.945539   -0.482158 H         1 <1>         0.168100 
     40 H          -1.324533   -0.545245   -1.535706 H         1 <1>         0.189800 
     41 H          -4.448982   -2.099854   -1.330314 H         1 <1>         0.169700 
     42 H          -7.925863   -1.141425   -2.078985 H         1 <1>         0.356300 
     43 H          -8.288926    0.003779   -0.911239 H         1 <1>         0.352200 
     44 H          -6.062176    0.031845    2.027022 H         1 <1>         0.178500 
     45 H          -3.785818    0.896934    2.563311 H         1 <1>         0.195100 
     46 H          -0.825512    0.076126    0.525445 H         1 <1>         0.366200 
     47 H           0.589396    2.455016    2.563080 H         1 <1>         0.188300 
     48 H           0.908697    0.723360    2.739458 H         1 <1>         0.201600 
     49 H          -0.354616    3.720374    1.127543 H         1 <1>         0.169600 
     50 H          -0.625989    5.372919   -0.657600 H         1 <1>         0.153000 
     51 H          -0.274428    6.101318   -2.993047 H         1 <1>         0.159300 
     52 H           1.761675    3.510333   -5.751285 H         1 <1>         0.162000 
     53 H           2.070587    1.823378   -3.991720 H         1 <1>         0.158400 
     54 H           3.658271    2.463161   -0.397659 H         1 <1>         0.175000 
     55 H           6.952624   -0.275012    0.005421 H         1 <1>         0.184700 
     56 H           3.271839   -1.577573   -1.830646 H         1 <1>         0.188000 
@<TRIPOS>BOND
     1    1   38 1    
     2   24   52 1    
     3    6   42 1    
     4    5    7 2    
     5    3   41 1    
     6   35   36 1    
     7   37   56 1    
     8   25   53 1    
     9   28   29 2    
    10   25   24 ar   
    11   24   22 ar   
    12    1   40 1    
    13    1   39 1    
    14    2    1 1    
    15    5    6 1    
    16    6   43 1    
    17   26   25 ar   
    18   37   35 ar   
    19   30   37 ar   
    20    2    3 ar   
    21    3    4 ar   
    22   22   23 1    
    23    4    5 1    
    24    5    8 2    
    25   35   34 ar   
    26   21   22 ar   
    27   28   30 1    
    28   27   28 1    
    29   11    2 ar   
    30    9    4 ar   
    31   30   31 ar   
    32   27   26 ar   
    33   26   20 ar   
    34   34   55 1    
    35   32   34 ar   
    36   17   27 ar   
    37   20   21 ar   
    38   21   51 1    
    39   12   46 1    
    40   31   32 ar   
    41   31   54 1    
    42   12   11 1    
    43   11   10 ar   
    44   19   20 ar   
    45   32   33 1    
    46   10    9 ar   
    47    9   44 1    
    48   13   12 1    
    49   16   17 1    
    50   17   18 ar   
    51   10   45 1    
    52   15   16 1    
    53   18   19 ar   
    54   19   50 1    
    55   18   49 1    
    56   13   15 1    
    57   13   14 2    
    58   15   48 1    
    59   15   47 1    
@<TRIPOS>SUBSTRUCTURE
     1 ****       42 TEMP              0 ****  ****    0 ROOT 
