#	Name:			MXD-2011-BMC-4601-10t
#	Creating user name:	Administrator
#	Creation time:		Sun Jul 05 17:02:46 2020

#	Modifying user name:	Administrator
#	Modification time:	Sun Jul 05 17:04:11 2020

@<TRIPOS>MOLECULE
MXD-2011-BMC-4601-10t
   57    60     1     0     0
SMALL
MULLIKEN_CHARGES
INVALID_CHARGES
Gaussian 16 #p B3LYP/6-31G* opt
@<TRIPOS>ATOM
      1 C          -1.844934   -1.396579   -1.060796 C.3       1 <1>        -0.567900 
      2 C          -3.015760   -0.964038   -0.209809 C.ar      1 <1>         0.152900 
      3 C          -4.297469   -1.432013   -0.491315 C.ar      1 <1>        -0.212100 
      4 C          -5.385065   -1.050588    0.295138 C.ar      1 <1>        -0.124200 
      5 S          -7.013005   -1.675970   -0.098575 S.o2      1 <1>         1.165900 
      6 N          -7.567492   -0.607979   -1.302392 N.3       1 <1>        -0.814700 
      7 O          -7.851403   -1.504176    1.092653 O.2       1 <1>        -0.528700 
      8 O          -6.856894   -2.973517   -0.763792 O.2       1 <1>        -0.543500 
      9 C          -5.213213   -0.204512    1.387472 C.ar      1 <1>        -0.165400 
     10 C          -3.942673    0.279243    1.687166 C.ar      1 <1>        -0.155800 
     11 C          -2.847038   -0.091276    0.892749 C.ar      1 <1>         0.293600 
     12 N          -1.543366    0.374069    1.160251 N.am      1 <1>        -0.731100 
     13 C          -1.107306    1.173724    2.183497 C.2       1 <1>         0.581400 
     14 O          -1.786779    1.646261    3.081874 O.2       1 <1>        -0.489600 
     15 C           0.389582    1.504579    2.132560 C.3       1 <1>        -0.142700 
     16 O           1.133421    0.789285    1.136822 O.3       1 <1>        -0.552700 
     17 C           1.908278   -0.277419    1.547476 C.ar      1 <1>         0.327400 
     18 C           1.411600   -1.240884    2.460535 C.ar      1 <1>        -0.178300 
     19 C           2.199967   -2.306276    2.820685 C.ar      1 <1>        -0.192500 
     20 C           3.510747   -2.457516    2.295949 C.ar      1 <1>         0.139100 
     21 C           4.324627   -3.556125    2.662885 C.ar      1 <1>        -0.217900 
     22 C           5.605247   -3.687539    2.154160 C.ar      1 <1>         0.138800 
     23 C           6.421164   -4.804603    2.529558 C.1       1 <1>         0.236700 
     24 N           7.087999   -5.709593    2.829180 N.1       1 <1>        -0.473700 
     25 C           6.115385   -2.706851    1.255990 C.ar      1 <1>        -0.141800 
     26 C           5.342550   -1.634453    0.885344 C.ar      1 <1>        -0.193700 
     27 C           4.017976   -1.473904    1.383539 C.ar      1 <1>         0.109400 
     28 C           3.179620   -0.379810    1.007156 C.ar      1 <1>        -0.054100 
     29 C           3.713517    0.728948    0.123760 C.2       1 <1>         0.331100 
     30 O           4.613846    1.442422    0.539810 O.2       1 <1>        -0.448200 
     31 C           3.163131    0.912271   -1.255003 C.ar      1 <1>         0.097900 
     32 C           3.539158    2.056408   -1.974715 C.ar      1 <1>        -0.151100 
     33 C           3.077992    2.246394   -3.273185 C.ar      1 <1>        -0.132200 
     34 C           2.251546    1.294896   -3.877334 C.ar      1 <1>        -0.117700 
     35 C           1.892578    0.155323   -3.157954 C.ar      1 <1>        -0.077600 
     36 CL          0.868294   -1.056002   -3.918520 Cl        1 <1>        -0.012400 
     37 C           2.332613   -0.045429   -1.852288 C.ar      1 <1>        -0.174000 
     38 H          -2.170571   -2.088946   -1.841019 H         1 <1>         0.181400 
     39 H          -1.075792   -1.913031   -0.470289 H         1 <1>         0.165700 
     40 H          -1.360545   -0.550831   -1.567369 H         1 <1>         0.177300 
     41 H          -4.449978   -2.115334   -1.320501 H         1 <1>         0.170400 
     42 H          -7.940599   -1.161777   -2.071620 H         1 <1>         0.356900 
     43 H          -8.287160    0.000033   -0.915254 H         1 <1>         0.353000 
     44 H          -6.061914    0.062427    2.007419 H         1 <1>         0.180000 
     45 H          -3.786507    0.934578    2.532243 H         1 <1>         0.198500 
     46 H          -0.819650    0.114458    0.501409 H         1 <1>         0.363700 
     47 H           0.808003    1.347572    3.130912 H         1 <1>         0.194000 
     48 H           0.487395    2.567084    1.887287 H         1 <1>         0.205200 
     49 H           0.408056   -1.139791    2.860475 H         1 <1>         0.161900 
     50 H           1.821337   -3.052031    3.514328 H         1 <1>         0.157700 
     51 H           3.934632   -4.299436    3.351815 H         1 <1>         0.165200 
     52 H           7.123656   -2.816950    0.870858 H         1 <1>         0.164800 
     53 H           5.753343   -0.888567    0.214812 H         1 <1>         0.165600 
     54 H           4.192377    2.778205   -1.496510 H         1 <1>         0.172500 
     55 H           3.362458    3.135303   -3.828721 H         1 <1>         0.154400 
     56 H           1.893180    1.430858   -4.892205 H         1 <1>         0.166900 
     57 H           2.047977   -0.943470   -1.315342 H         1 <1>         0.164500 
@<TRIPOS>BOND
     1   15   48 1    
     2   13   14 2    
     3   15   47 1    
     4   13   15 1    
     5   15   16 1    
     6   12   13 1    
     7   10   45 1    
     8   29   30 2    
     9   32   54 1    
    10   16   17 1    
    11    9   10 ar   
    12   10   11 ar   
    13    9   44 1    
    14   11   12 1    
    15   12   46 1    
    16   28   29 1    
    17   29   31 1    
    18   18   49 1    
    19   17   18 ar   
    20   17   28 ar   
    21   31   32 ar   
    22   32   33 ar   
    23    4    9 ar   
    24   33   55 1    
    25    2   11 ar   
    26   18   19 ar   
    27   28   27 ar   
    28   31   37 ar   
    29   33   34 ar   
    30   19   50 1    
    31   19   20 ar   
    32   27   20 ar   
    33   27   26 ar   
    34    6   43 1    
    35   26   53 1    
    36    5    7 2    
    37   20   21 ar   
    38    5    4 1    
    39    4    3 ar   
    40   26   25 ar   
    41    3    2 ar   
    42    2    1 1    
    43   37   57 1    
    44   37   35 ar   
    45   34   56 1    
    46   35   34 ar   
    47    6    5 1    
    48    6   42 1    
    49    1   40 1    
    50   21   51 1    
    51   21   22 ar   
    52    5    8 2    
    53    3   41 1    
    54   25   52 1    
    55   25   22 ar   
    56   35   36 1    
    57    1   39 1    
    58    1   38 1    
    59   22   23 1    
    60   23   24 3    
@<TRIPOS>SUBSTRUCTURE
     1 ****       43 TEMP              0 ****  ****    0 ROOT 
