#	Name:			MXD-2011-BMC-4704-7j
#	Creating user name:	Administrator
#	Creation time:		Sun Jul 05 17:02:47 2020

#	Modifying user name:	Administrator
#	Modification time:	Sun Jul 05 17:04:11 2020

@<TRIPOS>MOLECULE
MXD-2011-BMC-4704-7j
   58    60     1     0     0
SMALL
MULLIKEN_CHARGES
INVALID_CHARGES
Gaussian 16 #p B3LYP/6-31G* opt
@<TRIPOS>ATOM
      1 C           6.793210   -1.716298    2.776269 C.3       1 <1>        -0.531900 
      2 C           5.724479   -1.293505    1.796056 C.ar      1 <1>         0.197700 
      3 C           5.196714   -0.000912    1.806450 C.ar      1 <1>        -0.199800 
      4 C           4.188053    0.360092    0.914443 C.ar      1 <1>        -0.166000 
      5 C           3.670136   -0.548041   -0.012735 C.ar      1 <1>         0.113900 
      6 C           2.606835   -0.136720   -1.023538 C.3       1 <1>        -0.030700 
      7 O           1.485103   -1.041827   -0.916592 O.3       1 <1>        -0.619200 
      8 C           2.110151    1.301846   -0.960105 C.ar      1 <1>         0.086200 
      9 C           2.370873    2.165326   -2.024212 C.ar      1 <1>        -0.209000 
     10 C           1.855848    3.462345   -2.039984 C.ar      1 <1>        -0.060600 
     11 CL          2.212598    4.520097   -3.398191 Cl        1 <1>        -0.019500 
     12 C           1.050757    3.913039   -1.001864 C.ar      1 <1>        -0.143300 
     13 C           0.775897    3.063087    0.072728 C.ar      1 <1>        -0.185400 
     14 C           1.311726    1.773141    0.106270 C.ar      1 <1>         0.338400 
     15 O           1.118988    0.889100    1.137614 O.3       1 <1>        -0.524300 
     16 C           0.412790    1.299402    2.298214 C.3       1 <1>        -0.145600 
     17 C          -1.113608    1.186386    2.179600 C.2       1 <1>         0.584100 
     18 O          -1.828485    1.811284    2.948940 O.2       1 <1>        -0.494600 
     19 N          -1.525959    0.305273    1.211590 N.am      1 <1>        -0.735000 
     20 C          -2.838282   -0.095550    0.892213 C.ar      1 <1>         0.297600 
     21 C          -3.947886    0.351817    1.627414 C.ar      1 <1>        -0.156900 
     22 C          -5.228524   -0.075791    1.289198 C.ar      1 <1>        -0.165000 
     23 C          -5.399563   -0.953256    0.222053 C.ar      1 <1>        -0.125500 
     24 S          -7.037609   -1.514895   -0.217057 S.o2      1 <1>         1.164100 
     25 N          -7.158887   -3.025668    0.559772 N.3       1 <1>        -0.814200 
     26 O          -8.000640   -0.595831    0.399267 O.2       1 <1>        -0.528700 
     27 O          -7.054581   -1.813239   -1.653096 O.2       1 <1>        -0.545500 
     28 C          -4.303882   -1.391456   -0.522297 C.ar      1 <1>        -0.211400 
     29 C          -3.013201   -0.973343   -0.206450 C.ar      1 <1>         0.151800 
     30 C          -1.844498   -1.437906   -1.042679 C.3       1 <1>        -0.571900 
     31 C           4.214347   -1.853079   -0.060349 C.ar      1 <1>         0.146900 
     32 C           3.765357   -2.886598   -1.069389 C.3       1 <1>        -0.521900 
     33 C           5.221717   -2.192770    0.848021 C.ar      1 <1>        -0.249900 
     34 H           7.504858   -2.412909    2.319415 H         1 <1>         0.158500 
     35 H           7.355577   -0.855054    3.151846 H         1 <1>         0.156800 
     36 H           6.356467   -2.225465    3.646001 H         1 <1>         0.166100 
     37 H           5.576075    0.733884    2.512848 H         1 <1>         0.120200 
     38 H           3.809884    1.376394    0.935728 H         1 <1>         0.128400 
     39 H           3.051664   -0.267089   -2.022927 H         1 <1>         0.139400 
     40 H           1.012672   -0.999231   -1.763109 H         1 <1>         0.395000 
     41 H           2.981836    1.822967   -2.854227 H         1 <1>         0.157700 
     42 H           0.632692    4.913491   -1.025168 H         1 <1>         0.164800 
     43 H           0.132274    3.421461    0.867914 H         1 <1>         0.165500 
     44 H           0.662794    2.318600    2.606558 H         1 <1>         0.182600 
     45 H           0.741154    0.617983    3.089929 H         1 <1>         0.202300 
     46 H          -0.769910   -0.110614    0.677035 H         1 <1>         0.377400 
     47 H          -3.794986    1.035183    2.450218 H         1 <1>         0.197900 
     48 H          -6.089639    0.281730    1.843116 H         1 <1>         0.178200 
     49 H          -7.763077   -2.943813    1.375652 H         1 <1>         0.351500 
     50 H          -7.545279   -3.692561   -0.106378 H         1 <1>         0.355800 
     51 H          -4.462643   -2.051548   -1.369069 H         1 <1>         0.167900 
     52 H          -1.333113   -0.590674   -1.519647 H         1 <1>         0.159700 
     53 H          -2.187022   -2.105994   -1.837355 H         1 <1>         0.173600 
     54 H          -1.093608   -1.981459   -0.454785 H         1 <1>         0.185900 
     55 H           2.741226   -3.217586   -0.876233 H         1 <1>         0.180600 
     56 H           4.425857   -3.758762   -1.045518 H         1 <1>         0.149400 
     57 H           3.779971   -2.489801   -2.093259 H         1 <1>         0.144100 
     58 H           5.637864   -3.197996    0.806215 H         1 <1>         0.115500 
@<TRIPOS>BOND
     1   32   57 1    
     2   32   56 1    
     3   32   55 1    
     4   31   32 1    
     5   30   53 1    
     6    6   39 1    
     7    7   40 1    
     8   28   51 1    
     9    9   41 1    
    10   24   27 2    
    11   30   52 1    
    12   30   54 1    
    13   29   30 1    
    14    6    7 1    
    15   25   50 1    
    16   31   33 ar   
    17    5   31 ar   
    18    6    5 1    
    19    8    6 1    
    20   33   58 1    
    21   10   11 1    
    22    8    9 ar   
    23    9   10 ar   
    24   29   28 ar   
    25   28   23 ar   
    26   33    2 ar   
    27    5    4 ar   
    28   24   25 1    
    29   25   49 1    
    30   23   24 1    
    31   24   26 2    
    32   20   29 ar   
    33   14    8 ar   
    34   12   10 ar   
    35   22   23 ar   
    36    1   34 1    
    37   19   46 1    
    38    2    1 1    
    39    3    2 ar   
    40    4   38 1    
    41    4    3 ar   
    42   15   14 1    
    43   14   13 ar   
    44   12   42 1    
    45   13   12 ar   
    46   19   20 1    
    47   20   21 ar   
    48    1   36 1    
    49    1   35 1    
    50    3   37 1    
    51   17   19 1    
    52   16   15 1    
    53   21   22 ar   
    54   22   48 1    
    55   13   43 1    
    56   21   47 1    
    57   17   16 1    
    58   17   18 2    
    59   16   45 1    
    60   16   44 1    
@<TRIPOS>SUBSTRUCTURE
     1 ****       50 TEMP              0 ****  ****    0 ROOT 
