#	Name:			MXD-2011-BMC-4704-7q
#	Creating user name:	Administrator
#	Creation time:		Sun Jul 05 17:02:47 2020

#	Modifying user name:	Administrator
#	Modification time:	Sun Jul 05 17:04:11 2020

@<TRIPOS>MOLECULE
MXD-2011-BMC-4704-7q
   52    54     1     0     0
SMALL
MULLIKEN_CHARGES
INVALID_CHARGES
Gaussian 16 #p B3LYP/6-31G* opt
@<TRIPOS>ATOM
      1 C          -1.829778   -1.481557   -0.985057 C.3       1 <1>        -0.569400 
      2 C          -3.011410   -0.987229   -0.181699 C.ar      1 <1>         0.155000 
      3 C          -4.300513   -1.402208   -0.510569 C.ar      1 <1>        -0.212500 
      4 C          -5.401843   -0.950994    0.216212 C.ar      1 <1>        -0.121600 
      5 S          -7.039962   -1.510146   -0.238988 S.o2      1 <1>         1.169100 
      6 N          -7.208207   -2.972724    0.611477 N.3       1 <1>        -0.814900 
      7 O          -7.015013   -1.873469   -1.659271 O.2       1 <1>        -0.541400 
      8 O          -7.999940   -0.547025    0.308579 O.2       1 <1>        -0.526400 
      9 C          -5.240903   -0.065379    1.278077 C.ar      1 <1>        -0.163500 
     10 C          -3.962930    0.361327    1.628961 C.ar      1 <1>        -0.151200 
     11 C          -2.851433   -0.097107    0.907489 C.ar      1 <1>         0.291800 
     12 N          -1.533585    0.309106    1.223028 N.am      1 <1>        -0.726500 
     13 C          -1.095592    1.158330    2.203707 C.2       1 <1>         0.621100 
     14 O          -1.809410    1.695129    3.040179 O.2       1 <1>        -0.491600 
     15 C           0.417702    1.441173    2.144557 C.3       1 <1>        -0.141200 
     16 O           0.874945    2.006034    3.347311 O.3       1 <1>        -0.515700 
     17 C           1.004403    1.212863    4.471689 C.ar      1 <1>         0.321500 
     18 C           1.419325   -0.117552    4.428105 C.ar      1 <1>        -0.170700 
     19 C           1.589531   -0.840222    5.610847 C.ar      1 <1>        -0.139600 
     20 C           1.347347   -0.215305    6.828709 C.ar      1 <1>        -0.058700 
     21 CL          1.558709   -1.111034    8.325948 Cl        1 <1>        -0.017100 
     22 C           0.932019    1.116004    6.875882 C.ar      1 <1>        -0.212000 
     23 C           0.752588    1.848832    5.702159 C.ar      1 <1>         0.117000 
     24 C           0.226891    3.281255    5.765046 C.3       1 <1>         0.018500 
     25 O          -1.100047    3.380406    5.286971 O.3       1 <1>        -0.653700 
     26 C           1.171204    4.307772    5.121670 C.ar      1 <1>         0.135200 
     27 C           0.643101    5.332277    4.333481 C.ar      1 <1>        -0.178100 
     28 C           1.498525    6.290419    3.794953 C.ar      1 <1>        -0.069500 
     29 CL          0.830862    7.573179    2.790759 Cl        1 <1>        -0.021500 
     30 C           2.872761    6.267413    4.024833 C.ar      1 <1>        -0.148500 
     31 C           3.373018    5.240956    4.823176 C.ar      1 <1>         0.076300 
     32 BR          5.256115    5.174607    5.163266 Br        1 <1>        -0.126900 
     33 C           2.547444    4.265589    5.373272 C.ar      1 <1>        -0.191500 
     34 H          -1.115873   -2.046776   -0.369362 H         1 <1>         0.166200 
     35 H          -1.280866   -0.659722   -1.466174 H         1 <1>         0.168500 
     36 H          -2.161905   -2.150955   -1.782452 H         1 <1>         0.186700 
     37 H          -4.452959   -2.070833   -1.351640 H         1 <1>         0.173400 
     38 H          -7.874241   -2.852826    1.372610 H         1 <1>         0.355600 
     39 H          -7.527566   -3.688503   -0.038992 H         1 <1>         0.358400 
     40 H          -6.106905    0.300929    1.818422 H         1 <1>         0.184300 
     41 H          -3.819402    1.046665    2.451800 H         1 <1>         0.203200 
     42 H          -0.814013   -0.076411    0.626654 H         1 <1>         0.344400 
     43 H           0.980783    0.544176    1.854102 H         1 <1>         0.153700 
     44 H           0.598240    2.203695    1.378615 H         1 <1>         0.205800 
     45 H           1.632112   -0.604906    3.482559 H         1 <1>         0.137200 
     46 H           1.914463   -1.874499    5.579913 H         1 <1>         0.159800 
     47 H           0.732090    1.582380    7.835390 H         1 <1>         0.163700 
     48 H           0.159706    3.545976    6.828472 H         1 <1>         0.161100 
     49 H          -1.183427    2.886495    4.446470 H         1 <1>         0.438400 
     50 H          -0.424185    5.370324    4.154212 H         1 <1>         0.173200 
     51 H           3.525886    7.019460    3.600248 H         1 <1>         0.170800 
     52 H           2.975815    3.478738    5.984940 H         1 <1>         0.153700 
@<TRIPOS>BOND
     1   24   48 1    
     2   24   25 1    
     3   25   49 1    
     4   22   47 1    
     5    9   40 1    
     6   27   50 1    
     7    5    8 2    
     8   24   26 1    
     9   23   24 1    
    10    6   38 1    
    11   26   27 ar   
    12   27   28 ar   
    13   10   41 1    
    14   23   22 ar   
    15   22   20 ar   
    16   26   33 ar   
    17   28   29 1    
    18   10    9 ar   
    19    9    4 ar   
    20   20   21 1    
    21   17   23 ar   
    22   28   30 ar   
    23    5    6 1    
    24    6   39 1    
    25   13   14 2    
    26   11   10 ar   
    27    4    5 1    
    28    5    7 2    
    29   19   20 ar   
    30   33   52 1    
    31   33   31 ar   
    32   31   30 ar   
    33   30   51 1    
    34    4    3 ar   
    35   31   32 1    
    36   16   17 1    
    37   17   18 ar   
    38   12   13 1    
    39   13   15 1    
    40   15   16 1    
    41   18   19 ar   
    42   19   46 1    
    43   11   12 1    
    44   11    2 ar   
    45   18   45 1    
    46   12   42 1    
    47    3    2 ar   
    48    3   37 1    
    49   15   44 1    
    50   15   43 1    
    51    2    1 1    
    52    1   34 1    
    53    1   35 1    
    54    1   36 1    
@<TRIPOS>SUBSTRUCTURE
     1 ****       38 TEMP              0 ****  ****    0 ROOT 
