#	Name:			MXD-2011-BMC-4601-10e
#	Creating user name:	Administrator
#	Creation time:		Sun Jul 05 17:02:45 2020

#	Modifying user name:	Administrator
#	Modification time:	Sun Jul 05 17:04:11 2020

@<TRIPOS>MOLECULE
MXD-2011-BMC-4601-10e
   62    65     1     0     0
SMALL
MULLIKEN_CHARGES
INVALID_CHARGES
Gaussian 16 #p B3LYP/6-31G* opt
@<TRIPOS>ATOM
      1 C           1.160511   -2.167468   -5.653786 C.3       1 <1>        -0.532400 
      2 C           1.852283   -1.907466   -4.336203 C.ar      1 <1>         0.175600 
      3 C           2.908414   -2.718554   -3.898742 C.ar      1 <1>        -0.160600 
      4 C           3.539524   -2.477631   -2.681840 C.ar      1 <1>        -0.189000 
      5 C           3.176910   -1.409036   -1.850024 C.ar      1 <1>         0.151000 
      6 C           3.894007   -1.245677   -0.527160 C.3       1 <1>        -0.543900 
      7 C           2.119902   -0.579427   -2.289747 C.ar      1 <1>         0.016000 
      8 C           1.573009    0.584016   -1.517476 C.2       1 <1>         0.312900 
      9 O           0.370065    0.835181   -1.572091 O.2       1 <1>        -0.458600 
     10 C           2.466899    1.476907   -0.697814 C.ar      1 <1>        -0.070100 
     11 C           2.131750    1.703987    0.634044 C.ar      1 <1>         0.364800 
     12 O           1.075840    0.996474    1.145498 O.3       1 <1>        -0.547200 
     13 C           0.346074    1.532735    2.244427 C.3       1 <1>        -0.126000 
     14 C          -1.116697    1.078217    2.224867 C.2       1 <1>         0.578500 
     15 O          -1.797968    1.281365    3.219910 O.2       1 <1>        -0.502600 
     16 N          -1.537029    0.501336    1.058711 N.am      1 <1>        -0.735700 
     17 C          -2.837740    0.024676    0.779074 C.ar      1 <1>         0.276800 
     18 C          -3.961087    0.557027    1.431799 C.ar      1 <1>        -0.135500 
     19 C          -5.235939    0.092645    1.126602 C.ar      1 <1>        -0.175600 
     20 C          -5.387597   -0.907731    0.166710 C.ar      1 <1>        -0.142000 
     21 S          -7.021862   -1.550049   -0.202958 S.o2      1 <1>         1.159400 
     22 N          -7.327583   -2.791338    0.903793 N.3       1 <1>        -0.785500 
     23 O          -6.955861   -2.204762   -1.509361 O.2       1 <1>        -0.530600 
     24 O          -7.992404   -0.503231    0.114057 O.2       1 <1>        -0.528700 
     25 C          -4.275830   -1.438955   -0.487856 C.ar      1 <1>        -0.230200 
     26 C          -2.986467   -0.991939   -0.193311 C.ar      1 <1>         0.160600 
     27 C          -1.794826   -1.602768   -0.889781 C.3       1 <1>        -0.571100 
     28 C           2.910888    2.557288    1.451856 C.ar      1 <1>        -0.183700 
     29 C           3.998235    3.207856    0.920473 C.ar      1 <1>        -0.195300 
     30 C           4.365708    3.041365   -0.437993 C.ar      1 <1>         0.139800 
     31 C           5.474379    3.736200   -0.990682 C.ar      1 <1>        -0.193200 
     32 C           5.815870    3.584554   -2.313900 C.ar      1 <1>        -0.133500 
     33 C           5.047734    2.730735   -3.139785 C.ar      1 <1>        -0.135700 
     34 C           3.967213    2.041009   -2.635874 C.ar      1 <1>        -0.196300 
     35 C           3.592937    2.158568   -1.266324 C.ar      1 <1>         0.096700 
     36 C           1.468247   -0.855965   -3.506286 C.ar      1 <1>        -0.219400 
     37 H           0.803178   -3.202134   -5.720087 H         1 <1>         0.166100 
     38 H           0.299469   -1.506323   -5.789566 H         1 <1>         0.164800 
     39 H           1.840264   -2.007398   -6.500294 H         1 <1>         0.166400 
     40 H           3.234040   -3.556068   -4.512181 H         1 <1>         0.132400 
     41 H           4.336310   -3.142898   -2.357802 H         1 <1>         0.131100 
     42 H           4.594122   -0.403046   -0.542440 H         1 <1>         0.180300 
     43 H           3.199894   -1.075277    0.301453 H         1 <1>         0.171500 
     44 H           4.468999   -2.148894   -0.300574 H         1 <1>         0.157400 
     45 H           0.774280    1.211433    3.200715 H         1 <1>         0.181000 
     46 H           0.348632    2.629236    2.216375 H         1 <1>         0.184500 
     47 H          -0.838394    0.430134    0.323634 H         1 <1>         0.403000 
     48 H          -3.824642    1.328711    2.176315 H         1 <1>         0.181800 
     49 H          -6.107068    0.523904    1.608798 H         1 <1>         0.173500 
     50 H          -6.673919   -3.563914    0.798813 H         1 <1>         0.344300 
     51 H          -7.358872   -2.447735    1.860921 H         1 <1>         0.346200 
     52 H          -4.419433   -2.203722   -1.244944 H         1 <1>         0.168600 
     53 H          -2.111974   -2.420585   -1.542790 H         1 <1>         0.160700 
     54 H          -1.249986   -0.874972   -1.502423 H         1 <1>         0.204900 
     55 H          -1.077534   -2.010472   -0.165561 H         1 <1>         0.162200 
     56 H           2.659150    2.681675    2.499265 H         1 <1>         0.151500 
     57 H           4.596253    3.862729    1.549085 H         1 <1>         0.144900 
     58 H           6.045294    4.398115   -0.343993 H         1 <1>         0.136200 
     59 H           6.664128    4.121481   -2.728376 H         1 <1>         0.136900 
     60 H           5.309341    2.620976   -4.188632 H         1 <1>         0.138200 
     61 H           3.390555    1.404247   -3.296244 H         1 <1>         0.149400 
     62 H           0.644772   -0.210394   -3.797275 H         1 <1>         0.152800 
@<TRIPOS>BOND
     1   33   60 1    
     2   32   59 1    
     3   33   32 ar   
     4   34   33 ar   
     5   31   32 ar   
     6    1   38 1    
     7   21   24 2    
     8   34   61 1    
     9   36   62 1    
    10   35   34 ar   
    11    1   39 1    
    12   31   58 1    
    13   30   31 ar   
    14    8    9 2    
    15   21   23 2    
    16    1   37 1    
    17    2    1 1    
    18   19   49 1    
    19   35   30 ar   
    20   10   35 ar   
    21   29   30 ar   
    22   20   21 1    
    23   21   22 1    
    24   19   20 ar   
    25   18   19 ar   
    26   36    2 ar   
    27    7   36 ar   
    28   25   20 ar   
    29   18   48 1    
    30   10    8 1    
    31    8    7 1    
    32   17   18 ar   
    33   11   10 ar   
    34   27   54 1    
    35   29   57 1    
    36   28   29 ar   
    37    2    3 ar   
    38   13   46 1    
    39   25   52 1    
    40   26   25 ar   
    41   17   26 ar   
    42   16   17 1    
    43   16   47 1    
    44   26   27 1    
    45    7    5 ar   
    46   11   28 ar   
    47   12   11 1    
    48   14   16 1    
    49   28   56 1    
    50   27   53 1    
    51   27   55 1    
    52   13   14 1    
    53   14   15 2    
    54   12   13 1    
    55   13   45 1    
    56   22   51 1    
    57   22   50 1    
    58    3   40 1    
    59    3    4 ar   
    60    5    4 ar   
    61    5    6 1    
    62    4   41 1    
    63    6   42 1    
    64    6   43 1    
    65    6   44 1    
@<TRIPOS>SUBSTRUCTURE
     1 ****        9 TEMP              0 ****  ****    0 ROOT 
