#	Name:			MXD-2011-BMC-4601-10l
#	Creating user name:	Administrator
#	Creation time:		Sun Jul 05 17:02:45 2020

#	Modifying user name:	Administrator
#	Modification time:	Sun Jul 05 17:04:11 2020

@<TRIPOS>MOLECULE
MXD-2011-BMC-4601-10l
   56    59     1     0     0
SMALL
MULLIKEN_CHARGES
INVALID_CHARGES
Gaussian 16 #p B3LYP/6-31G* opt
@<TRIPOS>ATOM
      1 C          -1.817130   -1.482027   -0.998936 C.3       1 <1>        -0.569300 
      2 C          -2.994000   -1.001036   -0.183439 C.ar      1 <1>         0.152600 
      3 C          -4.277018   -1.471934   -0.461838 C.ar      1 <1>        -0.229300 
      4 C          -5.374109   -1.065650    0.299446 C.ar      1 <1>        -0.142000 
      5 S          -7.012969   -1.666544   -0.118538 S.o2      1 <1>         1.161100 
      6 N          -7.690992   -0.553922   -1.193761 N.3       1 <1>        -0.785200 
      7 O          -6.847297   -2.897945   -0.890041 O.2       1 <1>        -0.529100 
      8 O          -7.833282   -1.586141    1.089103 O.2       1 <1>        -0.527200 
      9 C          -5.206614   -0.189164    1.370492 C.ar      1 <1>        -0.173900 
     10 C          -3.938099    0.300196    1.665856 C.ar      1 <1>        -0.155400 
     11 C          -2.834336   -0.091805    0.890875 C.ar      1 <1>         0.290300 
     12 N          -1.534929    0.391514    1.151499 N.am      1 <1>        -0.726200 
     13 C          -1.114280    1.214859    2.163970 C.2       1 <1>         0.587900 
     14 O          -1.803141    1.674226    3.063166 O.2       1 <1>        -0.495600 
     15 C           0.395380    1.502601    2.138826 C.3       1 <1>        -0.147300 
     16 O           0.978000    1.446750    0.842456 O.3       1 <1>        -0.541300 
     17 C           0.741734    2.465991   -0.050517 C.ar      1 <1>         0.351500 
     18 C           0.049668    3.655211    0.285213 C.ar      1 <1>        -0.188100 
     19 C          -0.116667    4.637097   -0.664163 C.ar      1 <1>        -0.196600 
     20 C           0.386460    4.486524   -1.980185 C.ar      1 <1>         0.140100 
     21 C           0.203796    5.496406   -2.962261 C.ar      1 <1>        -0.220800 
     22 C           0.684358    5.310741   -4.234292 C.ar      1 <1>         0.079900 
     23 BR          0.440945    6.666643   -5.557361 Br        1 <1>        -0.119900 
     24 C           1.359459    4.121668   -4.595307 C.ar      1 <1>        -0.148900 
     25 C           1.547796    3.131574   -3.659602 C.ar      1 <1>        -0.200800 
     26 C           1.078746    3.278385   -2.322671 C.ar      1 <1>         0.121300 
     27 C           1.250306    2.272016   -1.327776 C.ar      1 <1>        -0.094000 
     28 C           1.883857    0.936558   -1.650111 C.2       1 <1>         0.337700 
     29 O           1.178378   -0.059743   -1.741510 O.2       1 <1>        -0.454900 
     30 C           3.363656    0.846488   -1.839753 C.ar      1 <1>         0.080400 
     31 C           3.913629   -0.374734   -2.260413 C.ar      1 <1>        -0.150200 
     32 C           5.288779   -0.498303   -2.427115 C.ar      1 <1>        -0.131900 
     33 C           6.133113    0.585954   -2.171390 C.ar      1 <1>        -0.117500 
     34 C           5.578894    1.794246   -1.748261 C.ar      1 <1>        -0.074000 
     35 CL          6.634446    3.159339   -1.418476 Cl        1 <1>        -0.007000 
     36 C           4.204109    1.938975   -1.581445 C.ar      1 <1>        -0.167600 
     37 H          -1.269610   -0.668005   -1.488979 H         1 <1>         0.194900 
     38 H          -1.089346   -2.024227   -0.380235 H         1 <1>         0.170900 
     39 H          -2.151184   -2.169211   -1.780843 H         1 <1>         0.170600 
     40 H          -4.422868   -2.187050   -1.265572 H         1 <1>         0.171700 
     41 H          -7.823303    0.360055   -0.767343 H         1 <1>         0.346400 
     42 H          -7.172682   -0.498950   -2.067220 H         1 <1>         0.345600 
     43 H          -6.057039    0.091859    1.982962 H         1 <1>         0.176500 
     44 H          -3.787290    0.973032    2.497941 H         1 <1>         0.196400 
     45 H          -0.812839    0.122865    0.492151 H         1 <1>         0.373100 
     46 H           0.910709    0.726120    2.712781 H         1 <1>         0.199900 
     47 H           0.569190    2.460702    2.636269 H         1 <1>         0.186400 
     48 H          -0.364372    3.795415    1.276851 H         1 <1>         0.168900 
     49 H          -0.650265    5.548032   -0.406463 H         1 <1>         0.151700 
     50 H          -0.320123    6.409045   -2.697134 H         1 <1>         0.159000 
     51 H           1.721748    3.998566   -5.609891 H         1 <1>         0.161200 
     52 H           2.061216    2.221451   -3.952634 H         1 <1>         0.152300 
     53 H           3.244996   -1.208009   -2.447526 H         1 <1>         0.170500 
     54 H           5.716184   -1.441091   -2.755860 H         1 <1>         0.153600 
     55 H           7.207127    0.497519   -2.296458 H         1 <1>         0.166900 
     56 H           3.794259    2.886049   -1.250177 H         1 <1>         0.174600 
@<TRIPOS>BOND
     1   15   47 1    
     2   13   14 2    
     3   18   48 1    
     4   19   49 1    
     5   10   44 1    
     6   15   46 1    
     7   13   15 1    
     8   15   16 1    
     9   18   19 ar   
    10   17   18 ar   
    11   12   13 1    
    12   19   20 ar   
    13   21   50 1    
    14    9   43 1    
    15    9   10 ar   
    16   10   11 ar   
    17   16   17 1    
    18   17   27 ar   
    19   20   21 ar   
    20   26   20 ar   
    21   11   12 1    
    22   12   45 1    
    23    4    9 ar   
    24   21   22 ar   
    25    2   11 ar   
    26   36   56 1    
    27   34   35 1    
    28   27   26 ar   
    29   27   28 1    
    30   26   25 ar   
    31    5    8 2    
    32   22   23 1    
    33   22   24 ar   
    34    6   41 1    
    35   36   34 ar   
    36   30   36 ar   
    37    5    4 1    
    38    4    3 ar   
    39   34   33 ar   
    40    3    2 ar   
    41    2    1 1    
    42   28   30 1    
    43   28   29 2    
    44    5    6 1    
    45    5    7 2    
    46   25   24 ar   
    47   25   52 1    
    48    6   42 1    
    49   30   31 ar   
    50   24   51 1    
    51    3   40 1    
    52    1   38 1    
    53    1   37 1    
    54   33   55 1    
    55   33   32 ar   
    56    1   39 1    
    57   31   32 ar   
    58   31   53 1    
    59   32   54 1    
@<TRIPOS>SUBSTRUCTURE
     1 ****       47 TEMP              0 ****  ****    0 ROOT 
