#	Name:			MXD-2011-BMC-4601-10q
#	Creating user name:	Administrator
#	Creation time:		Sun Jul 05 17:02:45 2020

#	Modifying user name:	Administrator
#	Modification time:	Sun Jul 05 17:04:11 2020

@<TRIPOS>MOLECULE
MXD-2011-BMC-4601-10q
   62    65     1     0     0
SMALL
MULLIKEN_CHARGES
INVALID_CHARGES
Gaussian 16 #p B3LYP/6-31G* opt
@<TRIPOS>ATOM
      1 C          -1.073875    0.820481    9.043770 C.3       1 <1>        -0.534300 
      2 C          -0.335083    1.640935    8.015119 C.ar      1 <1>         0.141700 
      3 C          -1.010675    2.142646    6.897092 C.ar      1 <1>        -0.200700 
      4 C          -0.359349    2.904343    5.929821 C.ar      1 <1>        -0.169400 
      5 C           1.005974    3.179682    6.070038 C.ar      1 <1>         0.097600 
      6 C           1.771743    4.018599    5.104792 C.2       1 <1>         0.326000 
      7 O           2.935898    4.334570    5.322889 O.2       1 <1>        -0.472400 
      8 C           1.092067    4.558550    3.861742 C.ar      1 <1>        -0.053400 
      9 C           0.657239    3.699700    2.861915 C.ar      1 <1>         0.358000 
     10 O           0.867928    2.360487    3.093605 O.3       1 <1>        -0.511800 
     11 C           0.428241    1.403015    2.170047 C.3       1 <1>        -0.144100 
     12 C          -1.105766    1.229347    2.170435 C.2       1 <1>         0.602300 
     13 O          -1.826509    1.795569    2.971463 O.2       1 <1>        -0.471500 
     14 N          -1.533654    0.364058    1.184496 N.am      1 <1>        -0.732900 
     15 C          -2.837187   -0.099463    0.908045 C.ar      1 <1>         0.294900 
     16 C          -3.944651    0.297265    1.674704 C.ar      1 <1>        -0.152700 
     17 C          -5.211689   -0.189761    1.369091 C.ar      1 <1>        -0.171900 
     18 C          -5.376428   -1.063975    0.295628 C.ar      1 <1>        -0.141700 
     19 S          -7.013260   -1.673271   -0.124463 S.o2      1 <1>         1.163800 
     20 N          -7.721288   -0.540701   -1.153822 N.3       1 <1>        -0.785200 
     21 O          -7.816482   -1.643219    1.096139 O.2       1 <1>        -0.524500 
     22 O          -6.833315   -2.876627   -0.935736 O.2       1 <1>        -0.527700 
     23 C          -4.277110   -1.467488   -0.463253 C.ar      1 <1>        -0.227900 
     24 C          -2.996019   -0.998281   -0.174376 C.ar      1 <1>         0.155800 
     25 C          -1.817699   -1.459241   -1.001716 C.3       1 <1>        -0.568200 
     26 C           0.074352    4.196572    1.671251 C.ar      1 <1>        -0.176900 
     27 C          -0.064626    5.551805    1.490056 C.ar      1 <1>        -0.198400 
     28 C           0.375169    6.472471    2.472750 C.ar      1 <1>         0.137200 
     29 C           0.229439    7.873062    2.283620 C.ar      1 <1>        -0.223100 
     30 C           0.667232    8.741743    3.250313 C.ar      1 <1>         0.081400 
     31 BR          0.472155   10.628412    3.001160 Br        1 <1>        -0.133700 
     32 C           1.268489    8.270419    4.439518 C.ar      1 <1>        -0.153500 
     33 C           1.419353    6.918363    4.641401 C.ar      1 <1>        -0.187600 
     34 C           0.977844    5.970980    3.673055 C.ar      1 <1>         0.106600 
     35 C           1.687439    2.678805    7.191647 C.ar      1 <1>        -0.226300 
     36 C           1.045408    1.915174    8.163197 C.ar      1 <1>         0.131400 
     37 C           1.815716    1.394098    9.353960 C.3       1 <1>        -0.533000 
     38 H          -2.127734    0.703304    8.774659 H         1 <1>         0.159300 
     39 H          -0.640220   -0.182644    9.148463 H         1 <1>         0.162600 
     40 H          -1.030664    1.284781   10.037588 H         1 <1>         0.164200 
     41 H          -2.070591    1.930113    6.780315 H         1 <1>         0.129000 
     42 H          -0.913004    3.265097    5.070794 H         1 <1>         0.163800 
     43 H           0.793117    1.615478    1.153550 H         1 <1>         0.161700 
     44 H           0.886434    0.461784    2.494124 H         1 <1>         0.198000 
     45 H          -0.808629   -0.018975    0.592936 H         1 <1>         0.342600 
     46 H          -3.798879    0.973776    2.504535 H         1 <1>         0.199600 
     47 H          -6.064185    0.091363    1.978800 H         1 <1>         0.179600 
     48 H          -7.224666   -0.450025   -2.036434 H         1 <1>         0.347000 
     49 H          -7.877451    0.355712   -0.699665 H         1 <1>         0.349000 
     50 H          -4.421867   -2.175714   -1.273198 H         1 <1>         0.175100 
     51 H          -2.143972   -2.149774   -1.783417 H         1 <1>         0.185100 
     52 H          -1.069686   -1.991852   -0.397605 H         1 <1>         0.169600 
     53 H          -1.308463   -0.623558   -1.502094 H         1 <1>         0.164900 
     54 H          -0.276370    3.519226    0.901216 H         1 <1>         0.130700 
     55 H          -0.519964    5.931376    0.579150 H         1 <1>         0.140000 
     56 H          -0.229170    8.243432    1.372418 H         1 <1>         0.150600 
     57 H           1.611177    8.980186    5.184406 H         1 <1>         0.155800 
     58 H           1.899451    6.568926    5.547277 H         1 <1>         0.166200 
     59 H           2.744893    2.907252    7.286876 H         1 <1>         0.151500 
     60 H           2.864409    1.701509    9.307108 H         1 <1>         0.161900 
     61 H           1.790586    0.297757    9.407289 H         1 <1>         0.158300 
     62 H           1.400813    1.764269   10.300575 H         1 <1>         0.159900 
@<TRIPOS>BOND
     1   25   52 1    
     2   25   53 1    
     3   25   51 1    
     4   24   25 1    
     5   11   43 1    
     6   11   44 1    
     7   14   45 1    
     8   11   10 1    
     9   12   11 1    
    10   10    9 1    
    11   26   54 1    
    12   23   24 ar   
    13   24   15 ar   
    14   14   12 1    
    15   15   14 1    
    16    6    7 2    
    17   23   50 1    
    18    9   26 ar   
    19   26   27 ar   
    20    9    8 ar   
    21   12   13 2    
    22   18   23 ar   
    23   27   55 1    
    24    8    6 1    
    25    6    5 1    
    26   27   28 ar   
    27   16   15 ar   
    28    8   34 ar   
    29   35   59 1    
    30   34   28 ar   
    31   28   29 ar   
    32   34   33 ar   
    33   37   60 1    
    34    5   35 ar   
    35   35   36 ar   
    36    5    4 ar   
    37   29   56 1    
    38   29   30 ar   
    39   33   58 1    
    40   33   32 ar   
    41   37   61 1    
    42   19   22 2    
    43   18   17 ar   
    44   19   18 1    
    45   36   37 1    
    46   37   62 1    
    47   32   30 ar   
    48   30   31 1    
    49   16   46 1    
    50   17   16 ar   
    51   32   57 1    
    52   36    2 ar   
    53    4   42 1    
    54    4    3 ar   
    55   20   48 1    
    56   17   47 1    
    57   19   20 1    
    58   19   21 2    
    59    2    3 ar   
    60    2    1 1    
    61    3   41 1    
    62   20   49 1    
    63    1   39 1    
    64    1   38 1    
    65    1   40 1    
@<TRIPOS>SUBSTRUCTURE
     1 ****       60 TEMP              0 ****  ****    0 ROOT 
