#	Name:			MXD-2011-BMC-4704-7n
#	Creating user name:	Administrator
#	Creation time:		Sun Jul 05 17:02:47 2020

#	Modifying user name:	Administrator
#	Modification time:	Sun Jul 05 17:04:11 2020

@<TRIPOS>MOLECULE
MXD-2011-BMC-4704-7n
   52    54     1     0     0
SMALL
MULLIKEN_CHARGES
INVALID_CHARGES
Gaussian 16 #p B3LYP/6-31G* opt
@<TRIPOS>ATOM
      1 C          -1.842209   -1.404406   -1.048109 C.3       1 <1>        -0.567800 
      2 C          -3.011901   -0.981724   -0.188563 C.ar      1 <1>         0.154200 
      3 C          -4.295196   -1.436038   -0.485210 C.ar      1 <1>        -0.212100 
      4 C          -5.384421   -1.059688    0.300680 C.ar      1 <1>        -0.123500 
      5 S          -7.015099   -1.664019   -0.115996 S.o2      1 <1>         1.167000 
      6 N          -7.564206   -0.550152   -1.279207 N.3       1 <1>        -0.814800 
      7 O          -6.861253   -2.936620   -0.828259 O.2       1 <1>        -0.543000 
      8 O          -7.852210   -1.532408    1.080660 O.2       1 <1>        -0.527300 
      9 C          -5.211886   -0.234006    1.408300 C.ar      1 <1>        -0.164100 
     10 C          -3.939565    0.233967    1.725312 C.ar      1 <1>        -0.154200 
     11 C          -2.842360   -0.130181    0.930545 C.ar      1 <1>         0.293700 
     12 N          -1.533821    0.318685    1.213630 N.am      1 <1>        -0.730900 
     13 C          -1.108053    1.201573    2.183892 C.2       1 <1>         0.599700 
     14 O          -1.813386    1.712665    3.033266 O.2       1 <1>        -0.464600 
     15 C           0.392750    1.539579    2.055741 C.3       1 <1>        -0.143900 
     16 O           0.926386    2.089340    3.234564 O.3       1 <1>        -0.535600 
     17 C           1.269909    1.267905    4.287243 C.ar      1 <1>         0.345100 
     18 C           0.961546   -0.096745    4.301579 C.ar      1 <1>        -0.173300 
     19 C           1.328605   -0.903156    5.376543 C.ar      1 <1>        -0.142000 
     20 C           2.007913   -0.330033    6.445013 C.ar      1 <1>        -0.061900 
     21 CL          2.488697   -1.324764    7.812600 Cl        1 <1>        -0.020400 
     22 C           2.312305    1.027488    6.440417 C.ar      1 <1>        -0.192100 
     23 C           1.953095    1.855807    5.371752 C.ar      1 <1>         0.112900 
     24 C           2.379082    3.333506    5.481823 C.3       1 <1>        -0.031800 
     25 O           2.315246    4.088226    4.290708 O.3       1 <1>        -0.632400 
     26 C           1.699987    4.054279    6.658644 C.ar      1 <1>         0.208000 
     27 C           2.507671    4.501538    7.711566 C.ar      1 <1>        -0.198200 
     28 C           1.963134    5.182444    8.798155 C.ar      1 <1>        -0.060700 
     29 CL          3.018560    5.719577   10.096579 Cl        1 <1>        -0.015600 
     30 C           0.598383    5.446211    8.864964 C.ar      1 <1>        -0.126100 
     31 C          -0.218663    5.016474    7.820894 C.ar      1 <1>        -0.124800 
     32 C           0.326544    4.331508    6.736051 C.ar      1 <1>        -0.138700 
     33 CL         -0.764888    3.817637    5.460150 Cl        1 <1>         0.005600 
     34 H          -1.086780   -1.962288   -0.476683 H         1 <1>         0.166800 
     35 H          -1.340038   -0.546564   -1.517219 H         1 <1>         0.165700 
     36 H          -2.176934   -2.059400   -1.856245 H         1 <1>         0.184700 
     37 H          -4.448896   -2.102602   -1.327815 H         1 <1>         0.171400 
     38 H          -7.935728   -1.072662   -2.070822 H         1 <1>         0.357500 
     39 H          -8.283371    0.044761   -0.871537 H         1 <1>         0.354000 
     40 H          -6.061357    0.027963    2.029548 H         1 <1>         0.182100 
     41 H          -3.784863    0.872401    2.583099 H         1 <1>         0.201800 
     42 H          -0.818395   -0.027236    0.589093 H         1 <1>         0.341300 
     43 H           0.979163    0.671244    1.722683 H         1 <1>         0.157700 
     44 H           0.498883    2.324632    1.298630 H         1 <1>         0.199400 
     45 H           0.409397   -0.546856    3.485095 H         1 <1>         0.137500 
     46 H           1.080695   -1.958841    5.381069 H         1 <1>         0.159400 
     47 H           2.839532    1.454864    7.287720 H         1 <1>         0.158500 
     48 H           3.446094    3.313130    5.732780 H         1 <1>         0.161200 
     49 H           1.483147    3.869659    3.842306 H         1 <1>         0.429100 
     50 H           3.577923    4.322142    7.677576 H         1 <1>         0.158600 
     51 H           0.179416    5.978462    9.711831 H         1 <1>         0.163200 
     52 H          -1.285434    5.211801    7.847136 H         1 <1>         0.163800 
@<TRIPOS>BOND
     1   15   44 1    
     2    1   35 1    
     3   25   49 1    
     4   24   25 1    
     5   15   43 1    
     6    1   36 1    
     7   15   16 1    
     8   13   15 1    
     9    1   34 1    
    10    2    1 1    
    11   12   42 1    
    12   16   17 1    
    13   24   48 1    
    14   23   24 1    
    15   24   26 1    
    16   12   13 1    
    17   11   12 1    
    18   13   14 2    
    19    2   11 ar   
    20    3    2 ar   
    21   17   23 ar   
    22   17   18 ar   
    23    3   37 1    
    24   27   50 1    
    25   10   11 ar   
    26   23   22 ar   
    27   26   27 ar   
    28   26   32 ar   
    29    4    3 ar   
    30   27   28 ar   
    31    6   38 1    
    32   32   33 1    
    33   18   45 1    
    34   18   19 ar   
    35    6   39 1    
    36    5    6 1    
    37   32   31 ar   
    38   10   41 1    
    39    9   10 ar   
    40    4    9 ar   
    41    4    5 1    
    42   28   29 1    
    43   28   30 ar   
    44   22   47 1    
    45   22   20 ar   
    46    9   40 1    
    47   31   30 ar   
    48   31   52 1    
    49   30   51 1    
    50   19   20 ar   
    51   19   46 1    
    52    5    7 2    
    53    5    8 2    
    54   20   21 1    
@<TRIPOS>SUBSTRUCTURE
     1 ****       35 TEMP              0 ****  ****    0 ROOT 
