#	Name:			MXD-2012-EJMC-504-3-13a
#	Creating user name:	Administrator
#	Creation time:		Sun Jul 05 17:02:51 2020

#	Modifying user name:	Administrator
#	Modification time:	Sun Jul 05 17:04:11 2020

@<TRIPOS>MOLECULE
MXD-2012-EJMC-504-3-13a
   52    54     1     0     0
SMALL
MULLIKEN_CHARGES
INVALID_CHARGES
Gaussian 16 #p B3LYP/6-31G* opt
@<TRIPOS>ATOM
      1 C          -1.813737   -1.476203   -0.991088 C.3       1 <1>        -0.567600 
      2 C          -2.995349   -1.006097   -0.174293 C.ar      1 <1>         0.156600 
      3 C          -4.277191   -1.474555   -0.460690 C.ar      1 <1>        -0.228800 
      4 C          -5.376010   -1.063747    0.295589 C.ar      1 <1>        -0.141900 
      5 S          -7.014609   -1.667936   -0.124374 S.o2      1 <1>         1.163500 
      6 N          -7.707328   -0.543131   -1.174229 N.3       1 <1>        -0.785300 
      7 O          -7.825606   -1.614186    1.090435 O.2       1 <1>        -0.525100 
      8 O          -6.841377   -2.883665   -0.918239 O.2       1 <1>        -0.527500 
      9 C          -5.211180   -0.184489    1.365187 C.ar      1 <1>        -0.172700 
     10 C          -3.943344    0.302511    1.667400 C.ar      1 <1>        -0.154800 
     11 C          -2.837362   -0.099190    0.901321 C.ar      1 <1>         0.294200 
     12 N          -1.536596    0.368904    1.171511 N.am      1 <1>        -0.727300 
     13 C          -1.106145    1.197093    2.174369 C.2       1 <1>         0.582000 
     14 O          -1.796146    1.721915    3.034748 O.2       1 <1>        -0.490500 
     15 C           0.399165    1.500005    2.129036 C.3       1 <1>        -0.143100 
     16 O           1.151974    0.664105    1.251452 O.3       1 <1>        -0.573100 
     17 C           1.685306   -0.517175    1.752270 C.ar      1 <1>         0.308500 
     18 C           1.197749   -1.184540    2.869965 C.ar      1 <1>        -0.188200 
     19 C           1.786968   -2.383493    3.281738 C.ar      1 <1>        -0.141600 
     20 C           2.854699   -2.892121    2.551122 C.ar      1 <1>        -0.078000 
     21 CL          3.599739   -4.401817    3.055914 Cl        1 <1>        -0.014100 
     22 C           3.359008   -2.240650    1.425673 C.ar      1 <1>        -0.174000 
     23 C           2.775481   -1.036096    1.016564 C.ar      1 <1>         0.325700 
     24 N           3.197634   -0.287357   -0.091190 N.am      1 <1>        -0.757500 
     25 C           4.236236   -0.555346   -0.961460 C.2       1 <1>         0.581300 
     26 O           4.968905   -1.531999   -0.855731 O.2       1 <1>        -0.504700 
     27 C           4.422014    0.455351   -2.057731 C.ar      1 <1>         0.061700 
     28 C           3.407736    1.312492   -2.510382 C.ar      1 <1>        -0.185100 
     29 C           3.658145    2.217494   -3.541508 C.ar      1 <1>        -0.134100 
     30 C           4.923183    2.276607   -4.128736 C.ar      1 <1>        -0.118700 
     31 C           5.934243    1.417308   -3.691291 C.ar      1 <1>        -0.135300 
     32 C           5.683148    0.507468   -2.667471 C.ar      1 <1>        -0.150100 
     33 H          -1.058677   -1.979410   -0.372176 H         1 <1>         0.180200 
     34 H          -1.314832   -0.647929   -1.513714 H         1 <1>         0.162900 
     35 H          -2.133264   -2.191208   -1.753277 H         1 <1>         0.182300 
     36 H          -4.422545   -2.189064   -1.265010 H         1 <1>         0.174800 
     37 H          -7.202294   -0.469841   -2.053898 H         1 <1>         0.346200 
     38 H          -7.852984    0.361540   -0.733206 H         1 <1>         0.347900 
     39 H          -6.064055    0.100446    1.972578 H         1 <1>         0.178900 
     40 H          -3.794166    0.980908    2.495627 H         1 <1>         0.199100 
     41 H          -0.798597    0.039040    0.562603 H         1 <1>         0.364100 
     42 H           0.789940    1.463152    3.150114 H         1 <1>         0.194800 
     43 H           0.522583    2.520721    1.753113 H         1 <1>         0.198300 
     44 H           0.353736   -0.791130    3.425951 H         1 <1>         0.161500 
     45 H           1.411425   -2.909167    4.151938 H         1 <1>         0.162600 
     46 H           4.195368   -2.640078    0.871182 H         1 <1>         0.215800 
     47 H           2.728000    0.602583   -0.183293 H         1 <1>         0.355400 
     48 H           2.405215    1.256031   -2.093421 H         1 <1>         0.128000 
     49 H           2.862837    2.869773   -3.891502 H         1 <1>         0.138200 
     50 H           5.117653    2.984050   -4.930263 H         1 <1>         0.141700 
     51 H           6.917858    1.455350   -4.150777 H         1 <1>         0.144100 
     52 H           6.451066   -0.176672   -2.322254 H         1 <1>         0.169000 
@<TRIPOS>BOND
     1    5    8 2    
     2    1   35 1    
     3    3   36 1    
     4   20   21 1    
     5    1   33 1    
     6   25   26 2    
     7    1   34 1    
     8    2    1 1    
     9   22   46 1    
    10    6   37 1    
    11   32   52 1    
    12    2    3 ar   
    13    3    4 ar   
    14    5    6 1    
    15    4    5 1    
    16    5    7 2    
    17   31   51 1    
    18   32   31 ar   
    19   27   32 ar   
    20   22   20 ar   
    21   23   22 ar   
    22    6   38 1    
    23   25   27 1    
    24   24   25 1    
    25   19   20 ar   
    26   31   30 ar   
    27   11    2 ar   
    28   27   28 ar   
    29    9    4 ar   
    30   30   50 1    
    31   29   30 ar   
    32   28   29 ar   
    33   28   48 1    
    34   23   24 1    
    35   24   47 1    
    36   17   23 ar   
    37   29   49 1    
    38   19   45 1    
    39   18   19 ar   
    40   12   41 1    
    41   12   11 1    
    42   11   10 ar   
    43   17   18 ar   
    44   16   17 1    
    45   18   44 1    
    46   10    9 ar   
    47    9   39 1    
    48   13   12 1    
    49   10   40 1    
    50   15   16 1    
    51   13   15 1    
    52   13   14 2    
    53   15   42 1    
    54   15   43 1    
@<TRIPOS>SUBSTRUCTURE
     1 ****        8 TEMP              0 ****  ****    0 ROOT 
