#	Name:			MXD-2011-BMC-4704-7s
#	Creating user name:	Administrator
#	Creation time:		Sun Jul 05 17:02:47 2020

#	Modifying user name:	Administrator
#	Modification time:	Sun Jul 05 17:04:11 2020

@<TRIPOS>MOLECULE
MXD-2011-BMC-4704-7s
   58    61     1     0     0
SMALL
MULLIKEN_CHARGES
INVALID_CHARGES
Gaussian 16 #p B3LYP/6-31G* opt
@<TRIPOS>ATOM
      1 C          -1.818255   -1.495538   -0.994118 C.3       1 <1>        -0.576200 
      2 C          -2.993557   -1.004764   -0.182219 C.ar      1 <1>         0.154800 
      3 C          -4.276794   -1.475626   -0.459587 C.ar      1 <1>        -0.229100 
      4 C          -5.374076   -1.063571    0.298098 C.ar      1 <1>        -0.142200 
      5 S          -7.012740   -1.665926   -0.117704 S.o2      1 <1>         1.161000 
      6 N          -7.696600   -0.550624   -1.185838 N.3       1 <1>        -0.785200 
      7 O          -6.845888   -2.893762   -0.894763 O.2       1 <1>        -0.529600 
      8 O          -7.829524   -1.592966    1.092667 O.2       1 <1>        -0.526900 
      9 C          -5.205185   -0.181745    1.364381 C.ar      1 <1>        -0.173300 
     10 C          -3.936373    0.308004    1.657477 C.ar      1 <1>        -0.155300 
     11 C          -2.831467   -0.088425    0.885576 C.ar      1 <1>         0.292200 
     12 N          -1.532712    0.396305    1.145212 N.am      1 <1>        -0.728400 
     13 C          -1.115574    1.214490    2.164258 C.2       1 <1>         0.588400 
     14 O          -1.806014    1.658630    3.069817 O.2       1 <1>        -0.496200 
     15 C           0.391942    1.512745    2.143425 C.3       1 <1>        -0.146400 
     16 O           0.985789    1.429510    0.856263 O.3       1 <1>        -0.538100 
     17 C           0.778717    2.454468   -0.040994 C.ar      1 <1>         0.337200 
     18 C           0.033019    3.600883    0.241661 C.ar      1 <1>        -0.185400 
     19 C          -0.113117    4.593110   -0.730857 C.ar      1 <1>        -0.140500 
     20 C           0.484121    4.426398   -1.974380 C.ar      1 <1>        -0.066600 
     21 CL          0.302837    5.671266   -3.203315 Cl        1 <1>        -0.020700 
     22 C           1.220938    3.278023   -2.264403 C.ar      1 <1>        -0.185900 
     23 C           1.377870    2.279630   -1.305169 C.ar      1 <1>         0.103500 
     24 C           2.120247    0.982515   -1.592989 C.3       1 <1>         0.018800 
     25 O           1.099814   -0.016944   -1.776445 O.3       1 <1>        -0.632000 
     26 C           3.080282    1.041523   -2.774716 C.ar      1 <1>         0.022100 
     27 C           2.701162    0.514899   -3.993398 C.ar      1 <1>        -0.202700 
     28 C           3.577603    0.519425   -5.104625 C.ar      1 <1>        -0.132600 
     29 C           4.837286    1.054027   -4.987136 C.ar      1 <1>        -0.185100 
     30 C           5.271906    1.617645   -3.756974 C.ar      1 <1>         0.135100 
     31 C           6.569390    2.179776   -3.622734 C.ar      1 <1>        -0.194200 
     32 C           6.983578    2.733766   -2.433313 C.ar      1 <1>        -0.130200 
     33 C           6.108734    2.751022   -1.322578 C.ar      1 <1>        -0.135400 
     34 C           4.843945    2.212829   -1.418204 C.ar      1 <1>        -0.196000 
     35 C           4.383659    1.623630   -2.629109 C.ar      1 <1>         0.097100 
     36 H          -2.153906   -2.202542   -1.757652 H         1 <1>         0.170000 
     37 H          -1.281960   -0.686401   -1.504817 H         1 <1>         0.200800 
     38 H          -1.085777   -2.019193   -0.364432 H         1 <1>         0.161800 
     39 H          -4.423173   -2.195399   -1.258950 H         1 <1>         0.171100 
     40 H          -7.832185    0.360679   -0.754794 H         1 <1>         0.347000 
     41 H          -7.180612   -0.488947   -2.060295 H         1 <1>         0.345800 
     42 H          -6.055147    0.104099    1.975508 H         1 <1>         0.176500 
     43 H          -3.785846    0.984857    2.486151 H         1 <1>         0.197500 
     44 H          -0.811149    0.149861    0.475836 H         1 <1>         0.373000 
     45 H           0.903286    0.754965    2.745834 H         1 <1>         0.195200 
     46 H           0.553636    2.485885    2.616318 H         1 <1>         0.185300 
     47 H          -0.453662    3.735092    1.200669 H         1 <1>         0.166600 
     48 H          -0.691913    5.484666   -0.515071 H         1 <1>         0.162700 
     49 H           1.675649    3.159631   -3.241053 H         1 <1>         0.171800 
     50 H           2.691120    0.722941   -0.692582 H         1 <1>         0.146200 
     51 H           1.553225   -0.872789   -1.856984 H         1 <1>         0.395900 
     52 H           1.709369    0.085402   -4.091567 H         1 <1>         0.143700 
     53 H           3.245958    0.094672   -6.048119 H         1 <1>         0.136000 
     54 H           5.519759    1.057540   -5.833635 H         1 <1>         0.134900 
     55 H           7.232007    2.166769   -4.484830 H         1 <1>         0.134700 
     56 H           7.978256    3.161691   -2.345015 H         1 <1>         0.135400 
     57 H           6.435780    3.196893   -0.387147 H         1 <1>         0.134600 
     58 H           4.186421    2.256590   -0.556321 H         1 <1>         0.137300 
@<TRIPOS>BOND
     1   15   45 1    
     2   15   46 1    
     3   15   13 1    
     4   16   15 1    
     5    1   38 1    
     6   33   57 1    
     7   13   14 2    
     8   13   12 1    
     9   24   50 1    
    10   17   16 1    
    11   34   58 1    
    12   34   33 ar   
    13   33   32 ar   
    14   25   51 1    
    15   12   44 1    
    16   12   11 1    
    17   32   56 1    
    18   35   34 ar   
    19   31   32 ar   
    20   10   43 1    
    21    1   36 1    
    22    2    1 1    
    23    1   37 1    
    24   11   10 ar   
    25   11    2 ar   
    26   10    9 ar   
    27   24   25 1    
    28    2    3 ar   
    29   24   26 1    
    30   23   24 1    
    31   26   35 ar   
    32   35   30 ar   
    33   30   31 ar   
    34   31   55 1    
    35    9   42 1    
    36    9    4 ar   
    37   17   23 ar   
    38   17   18 ar   
    39    3   39 1    
    40    3    4 ar   
    41   26   27 ar   
    42   30   29 ar   
    43    4    5 1    
    44    5    8 2    
    45   18   47 1    
    46   23   22 ar   
    47    5    7 2    
    48   27   52 1    
    49   27   28 ar   
    50   29   28 ar   
    51   29   54 1    
    52    5    6 1    
    53   18   19 ar   
    54   28   53 1    
    55   22   49 1    
    56   22   20 ar   
    57   19   20 ar   
    58   19   48 1    
    59    6   40 1    
    60    6   41 1    
    61   20   21 1    
@<TRIPOS>SUBSTRUCTURE
     1 ****       45 TEMP              0 ****  ****    0 ROOT 
