#	Name:			MXD-2011-BMC-4601-10m
#	Creating user name:	Administrator
#	Creation time:		Sun Jul 05 17:02:45 2020

#	Modifying user name:	Administrator
#	Modification time:	Sun Jul 05 17:04:11 2020

@<TRIPOS>MOLECULE
MXD-2011-BMC-4601-10m
   56    59     1     0     0
SMALL
MULLIKEN_CHARGES
INVALID_CHARGES
Gaussian 16 #p B3LYP/6-31G* opt
@<TRIPOS>ATOM
      1 C          -1.847449   -1.395975   -1.068564 C.3       1 <1>        -0.568100 
      2 C          -3.015366   -0.954956   -0.218231 C.ar      1 <1>         0.150000 
      3 C          -4.297772   -1.425515   -0.493644 C.ar      1 <1>        -0.211500 
      4 C          -5.384192   -1.049920    0.297322 C.ar      1 <1>        -0.124700 
      5 S          -7.011104   -1.676277   -0.093075 S.o2      1 <1>         1.163800 
      6 N          -7.553277   -0.629793   -1.322850 N.3       1 <1>        -0.814400 
      7 O          -7.857237   -1.479985    1.089536 O.2       1 <1>        -0.530100 
      8 O          -6.862061   -2.986968   -0.734247 O.2       1 <1>        -0.545100 
      9 C          -5.210839   -0.207644    1.392008 C.ar      1 <1>        -0.166500 
     10 C          -3.940373    0.279135    1.686540 C.ar      1 <1>        -0.156400 
     11 C          -2.846259   -0.081508    0.884908 C.ar      1 <1>         0.291400 
     12 N          -1.545458    0.399967    1.143394 N.am      1 <1>        -0.726500 
     13 C          -1.114089    1.188556    2.178062 C.2       1 <1>         0.588000 
     14 O          -1.790314    1.609739    3.105253 O.2       1 <1>        -0.496600 
     15 C           0.392975    1.488372    2.140269 C.3       1 <1>        -0.147000 
     16 O           0.959436    1.475408    0.835733 O.3       1 <1>        -0.541000 
     17 C           0.706030    2.519494   -0.023119 C.ar      1 <1>         0.350400 
     18 C           0.007453    3.691763    0.355966 C.ar      1 <1>        -0.187700 
     19 C          -0.176921    4.700852   -0.560997 C.ar      1 <1>        -0.196500 
     20 C           0.313920    4.594805   -1.885839 C.ar      1 <1>         0.140200 
     21 C           0.113152    5.632822   -2.834728 C.ar      1 <1>        -0.220600 
     22 C           0.582196    5.490191   -4.116376 C.ar      1 <1>         0.079900 
     23 BR          0.314989    6.884578   -5.394819 Br        1 <1>        -0.121800 
     24 C           1.262659    4.318261   -4.520822 C.ar      1 <1>        -0.149400 
     25 C           1.468499    3.301596   -3.617867 C.ar      1 <1>        -0.200400 
     26 C           1.012563    3.403651   -2.272223 C.ar      1 <1>         0.120600 
     27 C           1.202946    2.368680   -1.310737 C.ar      1 <1>        -0.090700 
     28 C           1.843961    1.048724   -1.680569 C.2       1 <1>         0.336700 
     29 O           1.144885    0.050179   -1.792970 O.2       1 <1>        -0.455200 
     30 C           3.321631    0.979114   -1.889987 C.ar      1 <1>         0.080100 
     31 C           3.878247   -0.223680   -2.354996 C.ar      1 <1>        -0.154800 
     32 C           5.253213   -0.330445   -2.542650 C.ar      1 <1>        -0.134600 
     33 C           6.091315    0.752957   -2.264526 C.ar      1 <1>        -0.184700 
     34 C           5.522997    1.934346   -1.800080 C.ar      1 <1>         0.385800 
     35 F           6.326896    2.980946   -1.525622 F         1 <1>        -0.292100 
     36 C           4.154974    2.071754   -1.609087 C.ar      1 <1>        -0.245300 
     37 H          -1.315266   -0.559591   -1.537381 H         1 <1>         0.195000 
     38 H          -1.105016   -1.953906   -0.482053 H         1 <1>         0.169100 
     39 H          -2.188564   -2.056235   -1.870344 H         1 <1>         0.169800 
     40 H          -4.450548   -2.107919   -1.323528 H         1 <1>         0.167700 
     41 H          -7.948372   -1.198815   -2.069771 H         1 <1>         0.355400 
     42 H          -8.255542    0.004927   -0.946573 H         1 <1>         0.350900 
     43 H          -6.057628    0.053880    2.016987 H         1 <1>         0.177300 
     44 H          -3.783137    0.928314    2.535869 H         1 <1>         0.194800 
     45 H          -0.832323    0.160429    0.463221 H         1 <1>         0.373200 
     46 H           0.566723    2.432577    2.663751 H         1 <1>         0.185200 
     47 H           0.921458    0.699105    2.684285 H         1 <1>         0.198800 
     48 H          -0.398120    3.797528    1.355215 H         1 <1>         0.168500 
     49 H          -0.716367    5.598289   -0.270447 H         1 <1>         0.151200 
     50 H          -0.415769    6.532261   -2.536497 H         1 <1>         0.158600 
     51 H           1.614734    4.228970   -5.542632 H         1 <1>         0.160200 
     52 H           1.985577    2.404836   -3.943566 H         1 <1>         0.152600 
     53 H           3.215074   -1.057034   -2.559195 H         1 <1>         0.167800 
     54 H           5.682751   -1.259680   -2.905242 H         1 <1>         0.151800 
     55 H           7.166388    0.694976   -2.399922 H         1 <1>         0.159400 
     56 H           3.756983    3.011691   -1.243973 H         1 <1>         0.167400 
@<TRIPOS>BOND
     1   15   46 1    
     2   13   14 2    
     3   18   48 1    
     4   19   49 1    
     5   10   44 1    
     6   15   47 1    
     7   13   15 1    
     8   15   16 1    
     9   18   19 ar   
    10   17   18 ar   
    11   12   13 1    
    12   19   20 ar   
    13   21   50 1    
    14    9   43 1    
    15    9   10 ar   
    16   10   11 ar   
    17   16   17 1    
    18   17   27 ar   
    19   20   21 ar   
    20   26   20 ar   
    21   11   12 1    
    22   12   45 1    
    23    4    9 ar   
    24   21   22 ar   
    25   36   56 1    
    26    2   11 ar   
    27   34   35 1    
    28   27   26 ar   
    29   27   28 1    
    30   26   25 ar   
    31    5    7 2    
    32   22   23 1    
    33   22   24 ar   
    34   36   34 ar   
    35   30   36 ar   
    36    5    4 1    
    37    4    3 ar   
    38   34   33 ar   
    39    6   42 1    
    40    3    2 ar   
    41    2    1 1    
    42   28   30 1    
    43   28   29 2    
    44    5    6 1    
    45    5    8 2    
    46   25   24 ar   
    47   25   52 1    
    48   30   31 ar   
    49   24   51 1    
    50    3   40 1    
    51    6   41 1    
    52   33   55 1    
    53   33   32 ar   
    54    1   38 1    
    55    1   37 1    
    56    1   39 1    
    57   31   32 ar   
    58   31   53 1    
    59   32   54 1    
@<TRIPOS>SUBSTRUCTURE
     1 ****       46 TEMP              0 ****  ****    0 ROOT 
