#	Name:			MXD-2011-BMC-4601-10c
#	Creating user name:	Administrator
#	Creation time:		Sun Jul 05 17:02:45 2020

#	Modifying user name:	Administrator
#	Modification time:	Sun Jul 05 17:04:11 2020

@<TRIPOS>MOLECULE
MXD-2011-BMC-4601-10c
   56    59     1     0     0
SMALL
MULLIKEN_CHARGES
INVALID_CHARGES
Gaussian 16 #p B3LYP/6-31G* opt
@<TRIPOS>ATOM
      1 C          -1.813542   -1.487452   -0.983987 C.3       1 <1>        -0.568000 
      2 C          -2.991466   -1.023636   -0.157694 C.ar      1 <1>         0.155800 
      3 C          -4.275335   -1.477755   -0.457050 C.ar      1 <1>        -0.228100 
      4 C          -5.374270   -1.070084    0.300339 C.ar      1 <1>        -0.142000 
      5 S          -7.015336   -1.653632   -0.137592 S.o2      1 <1>         1.163200 
      6 N          -7.702525   -0.495393   -1.154023 N.3       1 <1>        -0.785300 
      7 O          -6.846668   -2.846329   -0.966761 O.2       1 <1>        -0.528300 
      8 O          -7.826912   -1.632469    1.077689 O.2       1 <1>        -0.524900 
      9 C          -5.205865   -0.209705    1.384505 C.ar      1 <1>        -0.172100 
     10 C          -3.935522    0.260550    1.701972 C.ar      1 <1>        -0.153000 
     11 C          -2.828731   -0.135875    0.933654 C.ar      1 <1>         0.294600 
     12 N          -1.523541    0.315555    1.216039 N.am      1 <1>        -0.734300 
     13 C          -1.107450    1.220538    2.171868 C.2       1 <1>         0.618200 
     14 O          -1.826242    1.762700    2.988515 O.2       1 <1>        -0.466600 
     15 C           0.390589    1.550215    2.069210 C.3       1 <1>        -0.127800 
     16 O           0.877915    1.689236    3.383758 O.3       1 <1>        -0.509200 
     17 C           2.125374    2.221767    3.587594 C.ar      1 <1>         0.350200 
     18 C           3.039365    2.468101    2.534464 C.ar      1 <1>        -0.191500 
     19 C           4.287773    2.971298    2.819676 C.ar      1 <1>        -0.197300 
     20 C           4.692181    3.235124    4.150815 C.ar      1 <1>         0.135800 
     21 C           5.983028    3.752103    4.444987 C.ar      1 <1>        -0.192800 
     22 C           6.364894    3.997624    5.742216 C.ar      1 <1>        -0.133500 
     23 C           5.464143    3.730379    6.801898 C.ar      1 <1>        -0.134500 
     24 C           4.206847    3.228864    6.553602 C.ar      1 <1>        -0.189200 
     25 C           3.775479    2.965549    5.221740 C.ar      1 <1>         0.103400 
     26 C           2.467967    2.476168    4.910521 C.ar      1 <1>        -0.067600 
     27 C           1.486591    2.164581    6.017065 C.2       1 <1>         0.331600 
     28 O           1.778708    1.344949    6.877291 O.2       1 <1>        -0.459600 
     29 C           0.185356    2.904462    6.083512 C.ar      1 <1>         0.107700 
     30 C          -0.785372    2.458799    6.992276 C.ar      1 <1>        -0.149000 
     31 C          -1.994791    3.135595    7.110474 C.ar      1 <1>        -0.130700 
     32 C          -2.249264    4.270814    6.336822 C.ar      1 <1>        -0.116500 
     33 C          -1.273472    4.711765    5.444345 C.ar      1 <1>        -0.066100 
     34 CL         -1.579160    6.148398    4.471958 Cl        1 <1>        -0.029300 
     35 C          -0.062119    4.042556    5.305466 C.ar      1 <1>        -0.157900 
     36 H          -2.143082   -2.163699   -1.776705 H         1 <1>         0.183700 
     37 H          -1.291435   -0.650727   -1.469106 H         1 <1>         0.163400 
     38 H          -1.075891   -2.036825   -0.382082 H         1 <1>         0.170900 
     39 H          -4.423455   -2.175982   -1.275051 H         1 <1>         0.174100 
     40 H          -7.195620   -0.396767   -2.030153 H         1 <1>         0.346200 
     41 H          -7.846120    0.395987   -0.685918 H         1 <1>         0.348500 
     42 H          -6.058182    0.071963    1.994166 H         1 <1>         0.178900 
     43 H          -3.785094    0.922097    2.542890 H         1 <1>         0.203600 
     44 H          -0.795534   -0.087111    0.643500 H         1 <1>         0.340800 
     45 H           0.945782    0.770790    1.525549 H         1 <1>         0.144900 
     46 H           0.487905    2.491119    1.507169 H         1 <1>         0.179200 
     47 H           2.768098    2.254411    1.506924 H         1 <1>         0.135600 
     48 H           4.987804    3.164386    2.010590 H         1 <1>         0.139200 
     49 H           6.663442    3.950032    3.619985 H         1 <1>         0.131400 
     50 H           7.353341    4.392877    5.958539 H         1 <1>         0.133400 
     51 H           5.771787    3.919958    7.826665 H         1 <1>         0.136500 
     52 H           3.539479    3.012894    7.379373 H         1 <1>         0.158000 
     53 H          -0.569135    1.581207    7.591601 H         1 <1>         0.165000 
     54 H          -2.750220    2.785073    7.808032 H         1 <1>         0.144800 
     55 H          -3.188345    4.807227    6.423384 H         1 <1>         0.157200 
     56 H           0.682965    4.409115    4.609038 H         1 <1>         0.159200 
@<TRIPOS>BOND
     1   30   53 1    
     2   27   28 2    
     3   31   54 1    
     4   30   31 ar   
     5   29   30 ar   
     6   24   52 1    
     7   27   29 1    
     8   26   27 1    
     9   31   32 ar   
    10   23   51 1    
    11    5    8 2    
    12   24   23 ar   
    13   25   24 ar   
    14   29   35 ar   
    15   23   22 ar   
    16    5    7 2    
    17    1   38 1    
    18   26   25 ar   
    19   17   26 ar   
    20    9   42 1    
    21   25   20 ar   
    22    4    5 1    
    23    5    6 1    
    24    9    4 ar   
    25   10    9 ar   
    26    3    4 ar   
    27   16   17 1    
    28   15   16 1    
    29   10   43 1    
    30   11   10 ar   
    31    3   39 1    
    32    2    3 ar   
    33   32   55 1    
    34   32   33 ar   
    35   22   50 1    
    36   22   21 ar   
    37   11    2 ar   
    38   12   11 1    
    39    2    1 1    
    40   17   18 ar   
    41   13   14 2    
    42   12   44 1    
    43   13   12 1    
    44    1   36 1    
    45    1   37 1    
    46   13   15 1    
    47   15   45 1    
    48   35   33 ar   
    49   35   56 1    
    50   20   21 ar   
    51   20   19 ar   
    52   15   46 1    
    53   21   49 1    
    54   33   34 1    
    55   18   19 ar   
    56   18   47 1    
    57   19   48 1    
    58    6   41 1    
    59    6   40 1    
@<TRIPOS>SUBSTRUCTURE
     1 ****       42 TEMP              0 ****  ****    0 ROOT 
