#	Name:			WZY-2015-BMC-4248-3-3s
#	Creating user name:	Administrator
#	Creation time:		Sun Jul 05 17:03:46 2020

#	Modifying user name:	Administrator
#	Modification time:	Sun Jul 05 17:04:11 2020

@<TRIPOS>MOLECULE
WZY-2015-BMC-4248-3-3s
   54    56     1     0     0
SMALL
MULLIKEN_CHARGES
INVALID_CHARGES
Gaussian 16 #p B3LYP/6-31G* opt
@<TRIPOS>ATOM
      1 C          -1.820169   -1.202421   -1.086610 C.3       1 <1>        -0.544200 
      2 C          -3.018194   -0.797467   -0.262953 C.ar      1 <1>         0.168700 
      3 C          -4.265841   -1.383311   -0.483334 C.ar      1 <1>        -0.228500 
      4 C          -5.370808   -1.030398    0.293876 C.ar      1 <1>        -0.142300 
      5 S          -6.963027   -1.802299   -0.028110 S.o2      1 <1>         1.165800 
      6 N          -7.775006   -0.828862   -1.138267 N.3       1 <1>        -0.785600 
      7 O          -7.741959   -1.719275    1.205639 O.2       1 <1>        -0.524300 
      8 O          -6.702286   -3.058494   -0.728898 O.2       1 <1>        -0.525800 
      9 C          -5.256619   -0.076312    1.304399 C.ar      1 <1>        -0.169600 
     10 C          -4.025478    0.536042    1.519558 C.ar      1 <1>        -0.157900 
     11 C          -2.902980    0.170658    0.761848 C.ar      1 <1>         0.262900 
     12 N          -1.648722    0.783256    0.972547 N.am      1 <1>        -0.700600 
     13 C          -0.964195    1.119494    2.133328 C.2       1 <1>         0.597700 
     14 O           0.071972    1.758323    2.058690 O.2       1 <1>        -0.476900 
     15 C          -1.499505    0.608293    3.464968 C.3       1 <1>        -0.554800 
     16 S          -2.271277    1.942928    4.463317 S.3       1 <1>         0.191000 
     17 C          -0.927970    2.453580    5.517070 C.ar      1 <1>         0.264700 
     18 N          -1.209149    3.558355    6.218363 N.ar      1 <1>        -0.424600 
     19 C          -0.234386    3.970266    7.035346 C.ar      1 <1>         0.052000 
     20 C           0.991637    3.322866    7.159201 C.ar      1 <1>        -0.205800 
     21 C           1.143298    2.171520    6.375883 C.ar      1 <1>         0.528400 
     22 O           2.256148    1.390515    6.373809 O.3       1 <1>        -0.525200 
     23 C           3.372594    1.760552    7.123641 C.ar      1 <1>         0.191200 
     24 C           4.343107    2.568434    6.513024 C.ar      1 <1>         0.174800 
     25 C           4.146921    3.091763    5.112057 C.3       1 <1>        -0.533800 
     26 C           5.493822    2.857208    7.248662 C.ar      1 <1>        -0.227700 
     27 C           5.663668    2.346689    8.544188 C.ar      1 <1>         0.167400 
     28 C           6.852672    2.655100    9.284343 C.1       1 <1>         0.232500 
     29 N           7.815840    2.907254    9.885981 N.1       1 <1>        -0.475900 
     30 C           4.677528    1.528002    9.114634 C.ar      1 <1>        -0.227900 
     31 C           3.513805    1.218049    8.409029 C.ar      1 <1>         0.170800 
     32 C           2.447238    0.325818    8.993808 C.3       1 <1>        -0.531000 
     33 N           0.188376    1.731158    5.563633 N.ar      1 <1>        -0.460600 
     34 H          -0.973553   -1.483771   -0.449751 H         1 <1>         0.179700 
     35 H          -1.474891   -0.388586   -1.739939 H         1 <1>         0.163700 
     36 H          -2.060793   -2.052832   -1.730139 H         1 <1>         0.174900 
     37 H          -4.374584   -2.152136   -1.242365 H         1 <1>         0.176300 
     38 H          -7.307266   -0.786343   -2.040042 H         1 <1>         0.348500 
     39 H          -7.995371    0.091505   -0.766569 H         1 <1>         0.349600 
     40 H          -6.116638    0.182297    1.913130 H         1 <1>         0.182900 
     41 H          -3.939036    1.320462    2.264012 H         1 <1>         0.177300 
     42 H          -1.112359    1.030500    0.147757 H         1 <1>         0.341000 
     43 H          -0.641323    0.250046    4.038450 H         1 <1>         0.251200 
     44 H          -2.237436   -0.187881    3.360609 H         1 <1>         0.199900 
     45 H          -0.443597    4.866002    7.617125 H         1 <1>         0.164600 
     46 H           1.768158    3.685631    7.820223 H         1 <1>         0.166600 
     47 H           5.058343    3.573154    4.747575 H         1 <1>         0.164900 
     48 H           3.336734    3.829697    5.068019 H         1 <1>         0.176900 
     49 H           3.877933    2.285142    4.422413 H         1 <1>         0.193900 
     50 H           6.269645    3.478484    6.812346 H         1 <1>         0.159300 
     51 H           4.825002    1.128543   10.113045 H         1 <1>         0.158800 
     52 H           2.765687   -0.077964    9.958529 H         1 <1>         0.165800 
     53 H           2.222786   -0.511129    8.324034 H         1 <1>         0.186400 
     54 H           1.508321    0.870594    9.149790 H         1 <1>         0.173100 
@<TRIPOS>BOND
     1   32   52 1    
     2   32   53 1    
     3   32   54 1    
     4   31   32 1    
     5   30   51 1    
     6    5    8 2    
     7   31   30 ar   
     8   30   27 ar   
     9   23   31 ar   
    10    5    7 2    
    11    3   37 1    
    12    4    5 1    
    13    5    6 1    
    14   15   44 1    
    15    1   36 1    
    16    1   34 1    
    17   15   43 1    
    18   28   29 3    
    19   27   28 1    
    20   26   27 ar   
    21   22   23 1    
    22   21   22 1    
    23   23   24 ar   
    24    3    4 ar   
    25    2    3 ar   
    26    9    4 ar   
    27    2    1 1    
    28    1   35 1    
    29   15   13 1    
    30   16   15 1    
    31   11    2 ar   
    32   33   21 ar   
    33   17   33 ar   
    34   21   20 ar   
    35    9   40 1    
    36   10    9 ar   
    37   24   26 ar   
    38   26   50 1    
    39   24   25 1    
    40    6   38 1    
    41    6   39 1    
    42   11   10 ar   
    43   12   11 1    
    44   10   41 1    
    45   13   12 1    
    46   13   14 2    
    47   16   17 1    
    48   17   18 ar   
    49   25   49 1    
    50   12   42 1    
    51   20   46 1    
    52   20   19 ar   
    53   25   47 1    
    54   25   48 1    
    55   18   19 ar   
    56   19   45 1    
@<TRIPOS>SUBSTRUCTURE
     1 ****       44 TEMP              0 ****  ****    0 ROOT 
