#	Name:			HYP-2005-CJCU-254-10
#	Creating user name:	Administrator
#	Creation time:		Sun Jul 05 16:45:42 2020

#	Modifying user name:	Administrator
#	Modification time:	Sun Jul 05 16:48:40 2020

@<TRIPOS>MOLECULE
HYP-2005-CJCU-254-10
   50    52     1     0     0
SMALL
MULLIKEN_CHARGES
INVALID_CHARGES
Gaussian 16 #p B3LYP/6-31G* opt
@<TRIPOS>ATOM
      1 C          -3.094453    3.604058   -3.541133 C.3       1 <1>        -0.442800 
      2 C          -1.961985    3.426048   -2.525965 C.3       1 <1>        -0.254600 
      3 C          -2.409298    2.639280   -1.277051 C.3       1 <1>        -0.338100 
      4 C          -1.334898    2.508776   -0.219964 C.ar      1 <1>        -0.016900 
      5 C          -0.437892    1.484190   -0.110016 C.ar      1 <1>         0.322600 
      6 C          -0.420016    0.330669   -1.090160 C.3       1 <1>        -0.458800 
      7 C           0.723439    0.330111   -2.103534 C.ar      1 <1>         0.108000 
      8 C           1.548119    1.424913   -2.269035 C.ar      1 <1>        -0.194500 
      9 C           2.598631    1.426282   -3.218224 C.ar      1 <1>        -0.136400 
     10 C           2.822413    0.323219   -4.004023 C.ar      1 <1>        -0.186900 
     11 C           1.997535   -0.827123   -3.881023 C.ar      1 <1>         0.136900 
     12 C           2.209643   -1.974207   -4.690962 C.ar      1 <1>        -0.192500 
     13 C           1.403240   -3.083821   -4.578909 C.ar      1 <1>        -0.131500 
     14 C           0.341150   -3.089076   -3.646377 C.ar      1 <1>        -0.132800 
     15 C           0.110031   -1.993116   -2.842718 C.ar      1 <1>        -0.200200 
     16 C           0.927104   -0.830903   -2.924194 C.ar      1 <1>         0.075800 
     17 N           0.534288    1.467492    0.905612 N.ar      1 <1>        -0.566700 
     18 C           1.456435    0.341496    1.168424 C.3       1 <1>         0.075400 
     19 O           1.115743   -0.394490    2.311250 O.3       1 <1>        -0.442800 
     20 C           0.019807   -1.302240    2.197327 C.3       1 <1>        -0.040300 
     21 C           0.404399   -2.618604    1.525306 C.3       1 <1>        -0.468300 
     22 C           0.698974    2.539675    1.799120 C.ar      1 <1>         0.789600 
     23 O           1.589281    2.586715    2.629128 O.2       1 <1>        -0.505500 
     24 N          -0.232633    3.548481    1.653821 N.ar      1 <1>        -0.702400 
     25 C          -1.265371    3.635111    0.718430 C.ar      1 <1>         0.605600 
     26 O          -2.011770    4.606151    0.715503 O.2       1 <1>        -0.514800 
     27 H          -2.756478    4.169142   -4.417050 H         1 <1>         0.145500 
     28 H          -3.938858    4.146447   -3.099256 H         1 <1>         0.150800 
     29 H          -3.469823    2.635493   -3.895157 H         1 <1>         0.137400 
     30 H          -1.114196    2.912745   -2.998405 H         1 <1>         0.135900 
     31 H          -1.596496    4.408785   -2.203729 H         1 <1>         0.154200 
     32 H          -3.247420    3.173235   -0.817128 H         1 <1>         0.173800 
     33 H          -2.791692    1.658364   -1.581428 H         1 <1>         0.134000 
     34 H          -0.411678   -0.613315   -0.535334 H         1 <1>         0.171600 
     35 H          -1.368107    0.331578   -1.633465 H         1 <1>         0.188700 
     36 H           1.393976    2.311199   -1.661745 H         1 <1>         0.142500 
     37 H           3.225937    2.307829   -3.314671 H         1 <1>         0.139100 
     38 H           3.629581    0.314020   -4.732258 H         1 <1>         0.135300 
     39 H           3.026477   -1.957482   -5.408633 H         1 <1>         0.135800 
     40 H           1.577366   -3.953662   -5.206031 H         1 <1>         0.136100 
     41 H          -0.299422   -3.962925   -3.564547 H         1 <1>         0.134800 
     42 H          -0.720115   -2.020963   -2.144631 H         1 <1>         0.131300 
     43 H           1.519101   -0.270568    0.268469 H         1 <1>         0.157900 
     44 H           2.430582    0.775371    1.383899 H         1 <1>         0.194600 
     45 H          -0.295751   -1.488359    3.228418 H         1 <1>         0.159400 
     46 H          -0.828612   -0.824113    1.685730 H         1 <1>         0.132000 
     47 H           1.235182   -3.087068    2.062259 H         1 <1>         0.167800 
     48 H          -0.446833   -3.309692    1.533467 H         1 <1>         0.147800 
     49 H           0.711289   -2.482344    0.481644 H         1 <1>         0.154100 
     50 H          -0.134497    4.326769    2.296048 H         1 <1>         0.352700 
@<TRIPOS>BOND
     1   21   48 1    
     2   14   41 1    
     3    3   33 1    
     4    1   29 1    
     5   15   42 1    
     6   20   46 1    
     7   20   45 1    
     8    3   32 1    
     9    1   28 1    
    10   20   21 1    
    11   21   49 1    
    12   21   47 1    
    13   15   14 ar   
    14   14   13 ar   
    15    6   35 1    
    16   19   20 1    
    17    4    3 1    
    18    3    2 1    
    19    1   27 1    
    20    2    1 1    
    21   16   15 ar   
    22    6   34 1    
    23   13   40 1    
    24    5    6 1    
    25    6    7 1    
    26    5    4 ar   
    27    4   25 ar   
    28   13   12 ar   
    29    2   30 1    
    30    2   31 1    
    31   17    5 ar   
    32   25   26 2    
    33   18   19 1    
    34   25   24 ar   
    35    7   16 ar   
    36   16   11 ar   
    37    7    8 ar   
    38   17   18 1    
    39   17   22 ar   
    40   18   43 1    
    41   12   11 ar   
    42   12   39 1    
    43   18   44 1    
    44   24   22 ar   
    45   24   50 1    
    46   11   10 ar   
    47   22   23 2    
    48    8   36 1    
    49    8    9 ar   
    50   10    9 ar   
    51   10   38 1    
    52    9   37 1    
@<TRIPOS>SUBSTRUCTURE
     1 ****       41 TEMP              0 ****  ****    0 ROOT 
