#	Name:			HYP-2005-CJCU-254-11
#	Creating user name:	Administrator
#	Creation time:		Sun Jul 05 16:45:42 2020

#	Modifying user name:	Administrator
#	Modification time:	Sun Jul 05 16:48:40 2020

@<TRIPOS>MOLECULE
HYP-2005-CJCU-254-11
   50    52     1     0     0
SMALL
MULLIKEN_CHARGES
INVALID_CHARGES
Gaussian 16 #p B3LYP/6-31G* opt
@<TRIPOS>ATOM
      1 C           0.293209   -2.531774    2.245830 C.3       1 <1>        -0.459400 
      2 C          -0.016451   -1.103099    2.680590 C.3       1 <1>        -0.043700 
      3 O           1.111639   -0.231355    2.551207 O.3       1 <1>        -0.442300 
      4 C           1.365272    0.283780    1.279216 C.3       1 <1>         0.090900 
      5 N           0.499440    1.444278    0.943641 N.ar      1 <1>        -0.573100 
      6 C          -0.415476    1.497329   -0.122126 C.ar      1 <1>         0.312000 
      7 C          -0.262150    0.436326   -1.201544 C.3       1 <1>        -0.467800 
      8 C          -1.089149   -0.838206   -1.067657 C.ar      1 <1>         0.119500 
      9 C          -2.196149   -0.891640   -0.244679 C.ar      1 <1>        -0.204500 
     10 C          -2.989746   -2.059442   -0.139045 C.ar      1 <1>        -0.137400 
     11 C          -2.669950   -3.179440   -0.865666 C.ar      1 <1>        -0.187700 
     12 C          -1.549574   -3.174884   -1.739526 C.ar      1 <1>         0.137300 
     13 C          -1.214229   -4.320881   -2.508454 C.ar      1 <1>        -0.192800 
     14 C          -0.140156   -4.311543   -3.368545 C.ar      1 <1>        -0.131500 
     15 C           0.646500   -3.144240   -3.496764 C.ar      1 <1>        -0.131800 
     16 C           0.351403   -2.016551   -2.761163 C.ar      1 <1>        -0.202400 
     17 C          -0.745898   -1.989975   -1.855193 C.ar      1 <1>         0.076200 
     18 C          -1.323208    2.515801   -0.239267 C.ar      1 <1>        -0.004800 
     19 C          -2.350314    2.610552   -1.364634 C.3       1 <1>        -0.142400 
     20 C          -2.034090    3.769499   -2.331991 C.3       1 <1>        -0.451900 
     21 C          -3.795329    2.712349   -0.831671 C.3       1 <1>        -0.457300 
     22 C          -1.274030    3.627969    0.718600 C.ar      1 <1>         0.602000 
     23 O          -2.006976    4.611188    0.725697 O.2       1 <1>        -0.514600 
     24 N          -0.246406    3.537378    1.660903 N.ar      1 <1>        -0.698300 
     25 C           0.696107    2.538478    1.801749 C.ar      1 <1>         0.788100 
     26 O           1.610525    2.604169    2.602437 O.2       1 <1>        -0.501200 
     27 H          -0.574151   -3.176543    2.427965 H         1 <1>         0.148300 
     28 H           1.145188   -2.925175    2.809662 H         1 <1>         0.160000 
     29 H           0.526212   -2.593391    1.177107 H         1 <1>         0.155600 
     30 H          -0.266629   -1.075670    3.745501 H         1 <1>         0.154800 
     31 H          -0.876071   -0.702910    2.128712 H         1 <1>         0.134800 
     32 H           1.239342   -0.469497    0.501343 H         1 <1>         0.149000 
     33 H           2.396265    0.636248    1.302558 H         1 <1>         0.186000 
     34 H          -0.500881    0.908319   -2.160719 H         1 <1>         0.196200 
     35 H           0.798414    0.184679   -1.281608 H         1 <1>         0.172700 
     36 H          -2.469655   -0.016824    0.337086 H         1 <1>         0.146500 
     37 H          -3.851905   -2.058756    0.521865 H         1 <1>         0.138100 
     38 H          -3.271541   -4.081897   -0.790017 H         1 <1>         0.135600 
     39 H          -1.830251   -5.211170   -2.406251 H         1 <1>         0.135900 
     40 H           0.103300   -5.195226   -3.951581 H         1 <1>         0.136800 
     41 H           1.489346   -3.135457   -4.182443 H         1 <1>         0.136100 
     42 H           0.966524   -1.132432   -2.891200 H         1 <1>         0.132700 
     43 H          -2.307197    1.679846   -1.938228 H         1 <1>         0.130800 
     44 H          -2.761266    3.787732   -3.152461 H         1 <1>         0.140500 
     45 H          -1.034219    3.661576   -2.769692 H         1 <1>         0.132300 
     46 H          -2.079698    4.729465   -1.811355 H         1 <1>         0.181900 
     47 H          -4.036649    1.868158   -0.175111 H         1 <1>         0.135000 
     48 H          -4.499404    2.692323   -1.671860 H         1 <1>         0.137800 
     49 H          -3.943103    3.637791   -0.272551 H         1 <1>         0.189600 
     50 H          -0.137379    4.331201    2.282216 H         1 <1>         0.352000 
@<TRIPOS>BOND
     1   15   41 1    
     2   16   42 1    
     3   16   15 ar   
     4   15   14 ar   
     5   20   45 1    
     6    7   35 1    
     7    4   33 1    
     8   17   16 ar   
     9   14   40 1    
    10    7   34 1    
    11   13   14 ar   
    12    4   32 1    
    13    6    7 1    
    14    7    8 1    
    15   20   46 1    
    16   20   44 1    
    17   19   20 1    
    18   25   26 2    
    19    4    5 1    
    20    3    4 1    
    21    5   25 ar   
    22    5    6 ar   
    23   25   24 ar   
    24    6   18 ar   
    25    8   17 ar   
    26   17   12 ar   
    27   24   50 1    
    28   24   22 ar   
    29   18   19 1    
    30   18   22 ar   
    31   19   43 1    
    32    8    9 ar   
    33   19   21 1    
    34    2    3 1    
    35   22   23 2    
    36   12   13 ar   
    37   13   39 1    
    38    1   29 1    
    39   12   11 ar   
    40    1   28 1    
    41    1    2 1    
    42    1   27 1    
    43    2   31 1    
    44    2   30 1    
    45    9   36 1    
    46    9   10 ar   
    47   21   48 1    
    48   21   49 1    
    49   21   47 1    
    50   11   10 ar   
    51   11   38 1    
    52   10   37 1    
@<TRIPOS>SUBSTRUCTURE
     1 ****       29 TEMP              0 ****  ****    0 ROOT 
