#	Name:			HYP-2005-CJCU-254-9
#	Creating user name:	Administrator
#	Creation time:		Sun Jul 05 16:45:43 2020

#	Modifying user name:	Administrator
#	Modification time:	Sun Jul 05 16:48:40 2020

@<TRIPOS>MOLECULE
HYP-2005-CJCU-254-9
   47    49     1     0     0
SMALL
MULLIKEN_CHARGES
INVALID_CHARGES
Gaussian 16 #p B3LYP/6-31G* opt
@<TRIPOS>ATOM
      1 C           2.830907   -0.730423    3.399925 C.3       1 <1>        -0.467200 
      2 C           1.441587   -0.771543    2.775331 C.3       1 <1>        -0.038200 
      3 O           1.466855   -0.681770    1.338727 O.3       1 <1>        -0.463100 
      4 C           1.732404    0.587425    0.805719 C.3       1 <1>         0.051500 
      5 N           0.585965    1.518034    0.849356 N.ar      1 <1>        -0.563500 
      6 C          -0.470322    1.459517   -0.090751 C.ar      1 <1>         0.320200 
      7 C          -0.490024    0.193763   -0.954591 C.3       1 <1>        -0.473000 
      8 C          -1.818937   -0.502866   -1.217928 C.ar      1 <1>         0.112400 
      9 C          -2.220446   -0.709912   -2.524017 C.ar      1 <1>        -0.207500 
     10 C          -3.413712   -1.400944   -2.837679 C.ar      1 <1>        -0.127600 
     11 C          -4.209995   -1.889794   -1.830638 C.ar      1 <1>        -0.190500 
     12 C          -3.833118   -1.725913   -0.470987 C.ar      1 <1>         0.142500 
     13 C          -4.633946   -2.245260    0.581467 C.ar      1 <1>        -0.195700 
     14 C          -4.253775   -2.109243    1.896547 C.ar      1 <1>        -0.129400 
     15 C          -3.043730   -1.450028    2.214873 C.ar      1 <1>        -0.143700 
     16 C          -2.247456   -0.928471    1.219087 C.ar      1 <1>        -0.191300 
     17 C          -2.614420   -1.036844   -0.150882 C.ar      1 <1>         0.083900 
     18 C          -1.357960    2.490315   -0.201410 C.ar      1 <1>         0.002700 
     19 C          -2.455510    2.623969   -1.232607 C.3       1 <1>        -0.339200 
     20 C          -2.022098    3.478413   -2.438872 C.3       1 <1>        -0.444100 
     21 C          -1.256757    3.635096    0.712054 C.ar      1 <1>         0.604000 
     22 O          -1.983360    4.619815    0.696419 O.2       1 <1>        -0.511100 
     23 N          -0.250898    3.530992    1.678627 N.ar      1 <1>        -0.697400 
     24 C           0.699972    2.545333    1.794814 C.ar      1 <1>         0.780000 
     25 O           1.573336    2.577488    2.652525 O.2       1 <1>        -0.530800 
     26 H           3.478905   -1.490597    2.951192 H         1 <1>         0.155200 
     27 H           2.756554   -0.930181    4.475276 H         1 <1>         0.150200 
     28 H           3.295849    0.253040    3.282102 H         1 <1>         0.174400 
     29 H           0.809158    0.022614    3.190662 H         1 <1>         0.151600 
     30 H           0.956714   -1.731799    2.973728 H         1 <1>         0.152500 
     31 H           2.542673    1.095232    1.327598 H         1 <1>         0.196900 
     32 H           2.011930    0.428940   -0.236268 H         1 <1>         0.170400 
     33 H          -0.039318    0.439494   -1.924858 H         1 <1>         0.174200 
     34 H           0.160570   -0.549816   -0.490441 H         1 <1>         0.216400 
     35 H          -1.610646   -0.319185   -3.335472 H         1 <1>         0.127300 
     36 H          -3.696004   -1.534826   -3.878203 H         1 <1>         0.133500 
     37 H          -5.134158   -2.415237   -2.058601 H         1 <1>         0.132600 
     38 H          -5.557020   -2.759735    0.324776 H         1 <1>         0.132100 
     39 H          -4.875940   -2.511984    2.691177 H         1 <1>         0.132700 
     40 H          -2.739696   -1.356113    3.253953 H         1 <1>         0.130300 
     41 H          -1.315754   -0.442465    1.483757 H         1 <1>         0.153400 
     42 H          -2.792507    1.647926   -1.577100 H         1 <1>         0.164700 
     43 H          -3.306713    3.113481   -0.749202 H         1 <1>         0.170100 
     44 H          -2.850278    3.583755   -3.149108 H         1 <1>         0.146000 
     45 H          -1.177452    3.023585   -2.970566 H         1 <1>         0.130600 
     46 H          -1.724119    4.480771   -2.116328 H         1 <1>         0.168200 
     47 H          -0.176666    4.294810    2.341125 H         1 <1>         0.352900 
@<TRIPOS>BOND
     1    9   35 1    
     2    4   32 1    
     3    7   33 1    
     4   10   36 1    
     5    9   10 ar   
     6    8    9 ar   
     7    7   34 1    
     8   20   45 1    
     9   10   11 ar   
    10    1   26 1    
    11    7    8 1    
    12    6    7 1    
    13    4   31 1    
    14    4    3 1    
    15    5    4 1    
    16    3    2 1    
    17    8   17 ar   
    18   20   44 1    
    19   20   46 1    
    20   19   20 1    
    21    1   28 1    
    22    2    1 1    
    23    1   27 1    
    24    6    5 ar   
    25   18    6 ar   
    26   11   37 1    
    27   12   11 ar   
    28    5   24 ar   
    29    2   30 1    
    30    2   29 1    
    31   19   42 1    
    32   17   12 ar   
    33   17   16 ar   
    34   19   18 1    
    35   19   43 1    
    36   18   21 ar   
    37   12   13 ar   
    38   24   25 2    
    39   24   23 ar   
    40   16   41 1    
    41   16   15 ar   
    42   21   23 ar   
    43   21   22 2    
    44   23   47 1    
    45   13   38 1    
    46   13   14 ar   
    47   15   14 ar   
    48   15   40 1    
    49   14   39 1    
@<TRIPOS>SUBSTRUCTURE
     1 ****       45 TEMP              0 ****  ****    0 ROOT 
