#	Name:			HYP-2005-CJCU-254-15
#	Creating user name:	Administrator
#	Creation time:		Sun Jul 05 16:45:42 2020

#	Modifying user name:	Administrator
#	Modification time:	Sun Jul 05 16:48:40 2020

@<TRIPOS>MOLECULE
HYP-2005-CJCU-254-15
   57    60     1     0     0
SMALL
MULLIKEN_CHARGES
INVALID_CHARGES
Gaussian 16 #p B3LYP/6-31G* opt
@<TRIPOS>ATOM
      1 C          -2.101594    3.737473   -2.319697 C.3       1 <1>        -0.452000 
      2 C          -2.387461    2.587142   -1.332975 C.3       1 <1>        -0.143000 
      3 C          -3.819403    2.685384   -0.764937 C.3       1 <1>        -0.458300 
      4 C          -1.333393    2.508872   -0.231435 C.ar      1 <1>        -0.005900 
      5 C          -0.418915    1.496125   -0.122405 C.ar      1 <1>         0.313600 
      6 C          -0.277311    0.422476   -1.189680 C.3       1 <1>        -0.465600 
      7 C          -1.031768   -0.885484   -0.971242 C.ar      1 <1>         0.114200 
      8 C          -2.128486   -0.941701   -0.134692 C.ar      1 <1>        -0.203500 
      9 C          -2.855673   -2.140236    0.060218 C.ar      1 <1>        -0.138400 
     10 C          -2.478948   -3.289072   -0.590662 C.ar      1 <1>        -0.188900 
     11 C          -1.368212   -3.283694   -1.476424 C.ar      1 <1>         0.136900 
     12 C          -0.976292   -4.460862   -2.167590 C.ar      1 <1>        -0.192800 
     13 C           0.088097   -4.453259   -3.039527 C.ar      1 <1>        -0.131300 
     14 C           0.807087   -3.256345   -3.258847 C.ar      1 <1>        -0.131700 
     15 C           0.456137   -2.097731   -2.600062 C.ar      1 <1>        -0.202100 
     16 C          -0.632407   -2.067352   -1.683826 C.ar      1 <1>         0.078000 
     17 N           0.510711    1.451990    0.933244 N.ar      1 <1>        -0.576000 
     18 C           1.401864    0.303747    1.237091 C.3       1 <1>         0.099500 
     19 O           1.201785   -0.230811    2.509426 O.3       1 <1>        -0.450500 
     20 C           0.002497   -0.977744    2.696020 C.3       1 <1>        -0.099800 
     21 C          -0.123247   -1.344404    4.155804 C.ar      1 <1>         0.122700 
     22 C           0.316975   -0.463604    5.151825 C.ar      1 <1>        -0.169500 
     23 C           0.153271   -0.789781    6.498130 C.ar      1 <1>        -0.134000 
     24 C          -0.456240   -1.992129    6.864447 C.ar      1 <1>        -0.126800 
     25 C          -0.896269   -2.872729    5.875192 C.ar      1 <1>        -0.130200 
     26 C          -0.724688   -2.551266    4.527781 C.ar      1 <1>        -0.181700 
     27 C           0.697750    2.539658    1.800419 C.ar      1 <1>         0.790500 
     28 O           1.602778    2.598930    2.613976 O.2       1 <1>        -0.505600 
     29 N          -0.241038    3.540337    1.655609 N.ar      1 <1>        -0.699000 
     30 C          -1.273560    3.628221    0.717860 C.ar      1 <1>         0.603900 
     31 O          -2.004354    4.612458    0.724365 O.2       1 <1>        -0.512500 
     32 H          -2.849273    3.743177   -3.121762 H         1 <1>         0.141200 
     33 H          -1.112624    3.629714   -2.781194 H         1 <1>         0.132800 
     34 H          -2.139322    4.702641   -1.808165 H         1 <1>         0.182400 
     35 H          -2.353892    1.650749   -1.897756 H         1 <1>         0.131200 
     36 H          -4.543693    2.649754   -1.587194 H         1 <1>         0.138800 
     37 H          -3.960968    3.616717   -0.213914 H         1 <1>         0.189700 
     38 H          -4.037999    1.847745   -0.092276 H         1 <1>         0.136500 
     39 H          -0.592610    0.857876   -2.143158 H         1 <1>         0.196200 
     40 H           0.788851    0.221860   -1.322919 H         1 <1>         0.172100 
     41 H          -2.441869   -0.046495    0.393590 H         1 <1>         0.145800 
     42 H          -3.710747   -2.141138    0.730305 H         1 <1>         0.139800 
     43 H          -3.028177   -4.215976   -0.444892 H         1 <1>         0.136000 
     44 H          -1.541068   -5.374163   -1.995937 H         1 <1>         0.136200 
     45 H           0.375454   -5.361206   -3.562338 H         1 <1>         0.137100 
     46 H           1.641795   -3.249234   -3.954301 H         1 <1>         0.136200 
     47 H           1.019327   -1.192542   -2.801513 H         1 <1>         0.132300 
     48 H           2.430172    0.665298    1.232843 H         1 <1>         0.187100 
     49 H           1.257723   -0.453545    0.464542 H         1 <1>         0.152300 
     50 H           0.009561   -1.879422    2.065020 H         1 <1>         0.142800 
     51 H          -0.862765   -0.373701    2.384383 H         1 <1>         0.146900 
     52 H           0.798302    0.465268    4.861735 H         1 <1>         0.166300 
     53 H           0.503748   -0.102518    7.263807 H         1 <1>         0.131500 
     54 H          -0.582640   -2.243109    7.914328 H         1 <1>         0.127300 
     55 H          -1.363781   -3.814514    6.150759 H         1 <1>         0.126600 
     56 H          -1.058838   -3.245378    3.759234 H         1 <1>         0.121800 
     57 H          -0.134967    4.332083    2.280208 H         1 <1>         0.352900 
@<TRIPOS>BOND
     1   18   48 1    
     2   14   46 1    
     3   27   28 2    
     4   15   47 1    
     5   18   49 1    
     6   18   19 1    
     7   17   18 1    
     8   15   14 ar   
     9   14   13 ar   
    10    6   40 1    
    11   19   20 1    
    12   16   15 ar   
    13   17   27 ar   
    14   29   27 ar   
    15    5   17 ar   
    16   13   45 1    
    17   12   13 ar   
    18   22   52 1    
    19    6   39 1    
    20    5    6 1    
    21    6    7 1    
    22   29   57 1    
    23   30   29 ar   
    24    4    5 ar   
    25    1   33 1    
    26   20   50 1    
    27   20   21 1    
    28   20   51 1    
    29    7   16 ar   
    30   16   11 ar   
    31   21   22 ar   
    32   22   23 ar   
    33   23   53 1    
    34   21   26 ar   
    35    7    8 ar   
    36   23   24 ar   
    37   11   12 ar   
    38   12   44 1    
    39    4   30 ar   
    40   30   31 2    
    41    2    4 1    
    42    1   34 1    
    43    1    2 1    
    44    1   32 1    
    45   11   10 ar   
    46   26   56 1    
    47   26   25 ar   
    48   24   54 1    
    49   24   25 ar   
    50    2   35 1    
    51    2    3 1    
    52   25   55 1    
    53    8   41 1    
    54    8    9 ar   
    55   10    9 ar   
    56   10   43 1    
    57    9   42 1    
    58    3   37 1    
    59    3   38 1    
    60    3   36 1    
@<TRIPOS>SUBSTRUCTURE
     1 ****       33 TEMP              0 ****  ****    0 ROOT 
