#	Name:			HYP-2005-CJCU-254-6
#	Creating user name:	Administrator
#	Creation time:		Sun Jul 05 16:45:43 2020

#	Modifying user name:	Administrator
#	Modification time:	Sun Jul 05 16:48:40 2020

@<TRIPOS>MOLECULE
HYP-2005-CJCU-254-6
   44    46     1     0     0
SMALL
MULLIKEN_CHARGES
INVALID_CHARGES
Gaussian 16 #p B3LYP/6-31G* opt
@<TRIPOS>ATOM
      1 C          -2.091326    3.411444   -2.464875 C.3       1 <1>        -0.444900 
      2 C          -2.458382    2.567312   -1.231389 C.3       1 <1>        -0.333300 
      3 C          -1.350286    2.497080   -0.204459 C.ar      1 <1>        -0.008800 
      4 C          -0.440875    1.486804   -0.109782 C.ar      1 <1>         0.328200 
      5 C          -0.426332    0.317382   -1.070560 C.3       1 <1>        -0.468200 
      6 C          -1.138325   -0.947527   -0.597076 C.ar      1 <1>         0.111400 
      7 C          -1.941565   -0.951664    0.525712 C.ar      1 <1>        -0.198100 
      8 C          -2.612830   -2.122372    0.954400 C.ar      1 <1>        -0.135300 
      9 C          -2.479392   -3.293415    0.250689 C.ar      1 <1>        -0.188200 
     10 C          -1.671632   -3.342820   -0.917426 C.ar      1 <1>         0.136300 
     11 C          -1.527625   -4.543057   -1.662880 C.ar      1 <1>        -0.193600 
     12 C          -0.751604   -4.586264   -2.798677 C.ar      1 <1>        -0.131900 
     13 C          -0.083400   -3.420703   -3.238440 C.ar      1 <1>        -0.133500 
     14 C          -0.199643   -2.240404   -2.536010 C.ar      1 <1>        -0.199700 
     15 C          -0.989747   -2.158154   -1.355937 C.ar      1 <1>         0.073700 
     16 N           0.544972    1.480990    0.890751 N.ar      1 <1>        -0.561200 
     17 C           1.540212    0.428719    0.977570 C.3       1 <1>         0.077700 
     18 O           2.521174    0.640565   -0.020328 O.3       1 <1>        -0.457000 
     19 C           3.601496   -0.270959    0.094791 C.3       1 <1>        -0.206800 
     20 C           0.706592    2.543830    1.794544 C.ar      1 <1>         0.790100 
     21 O           1.578073    2.576331    2.647636 O.2       1 <1>        -0.514200 
     22 N          -0.225258    3.549532    1.647625 N.ar      1 <1>        -0.702400 
     23 C          -1.264544    3.634983    0.713552 C.ar      1 <1>         0.605500 
     24 O          -2.008697    4.607041    0.711768 O.2       1 <1>        -0.512600 
     25 H          -2.935065    3.462863   -3.162367 H         1 <1>         0.146600 
     26 H          -1.836816    4.432276   -2.164113 H         1 <1>         0.171800 
     27 H          -1.232753    2.989785   -3.000971 H         1 <1>         0.139100 
     28 H          -3.324931    3.025938   -0.744073 H         1 <1>         0.173300 
     29 H          -2.764831    1.561723   -1.535810 H         1 <1>         0.144700 
     30 H          -0.875797    0.648524   -2.011899 H         1 <1>         0.188300 
     31 H           0.617562    0.093195   -1.310084 H         1 <1>         0.201100 
     32 H          -2.069850   -0.036731    1.096382 H         1 <1>         0.137600 
     33 H          -3.233922   -2.082868    1.844935 H         1 <1>         0.136600 
     34 H          -2.990837   -4.197203    0.573010 H         1 <1>         0.133300 
     35 H          -2.048439   -5.433070   -1.317652 H         1 <1>         0.133900 
     36 H          -0.652005   -5.511407   -3.359598 H         1 <1>         0.134300 
     37 H           0.525405   -3.455943   -4.137808 H         1 <1>         0.133600 
     38 H           0.319444   -1.359260   -2.898362 H         1 <1>         0.135700 
     39 H           1.052978   -0.545196    0.847801 H         1 <1>         0.155200 
     40 H           1.980073    0.489511    1.976327 H         1 <1>         0.189600 
     41 H           3.270771   -1.314548   -0.024870 H         1 <1>         0.139900 
     42 H           4.108837   -0.171508    1.065842 H         1 <1>         0.149500 
     43 H           4.305576   -0.026732   -0.703425 H         1 <1>         0.169100 
     44 H          -0.131424    4.326358    2.292200 H         1 <1>         0.353600 
@<TRIPOS>BOND
     1    1   27 1    
     2   13   37 1    
     3    1   25 1    
     4    1   26 1    
     5    2    1 1    
     6   14   38 1    
     7   19   43 1    
     8   14   13 ar   
     9   13   12 ar   
    10    5   30 1    
    11   15   14 ar   
    12    5   31 1    
    13   12   36 1    
    14   18   19 1    
    15   19   41 1    
    16   19   42 1    
    17   17   18 1    
    18    2   29 1    
    19    3    2 1    
    20    2   28 1    
    21   12   11 ar   
    22    4    5 1    
    23    5    6 1    
    24    4    3 ar   
    25    3   23 ar   
    26   16    4 ar   
    27    6   15 ar   
    28   15   10 ar   
    29   23   24 2    
    30   23   22 ar   
    31    6    7 ar   
    32   16   17 1    
    33   16   20 ar   
    34   17   39 1    
    35   17   40 1    
    36   11   10 ar   
    37   11   35 1    
    38   22   20 ar   
    39   22   44 1    
    40   20   21 2    
    41   10    9 ar   
    42    7   32 1    
    43    7    8 ar   
    44    9    8 ar   
    45    9   34 1    
    46    8   33 1    
@<TRIPOS>SUBSTRUCTURE
     1 ****       37 TEMP              0 ****  ****    0 ROOT 
