#	Name:			HYP-2005-CJCU-254-17
#	Creating user name:	Administrator
#	Creation time:		Sun Jul 05 16:45:42 2020

#	Modifying user name:	Administrator
#	Modification time:	Sun Jul 05 16:48:40 2020

@<TRIPOS>MOLECULE
HYP-2005-CJCU-254-17
   45    47     1     0     0
SMALL
MULLIKEN_CHARGES
INVALID_CHARGES
Gaussian 16 #p B3LYP/6-31G* opt
@<TRIPOS>ATOM
      1 C          -1.957931    3.492562   -2.493734 C.3       1 <1>        -0.445500 
      2 C          -2.387143    2.622686   -1.298786 C.3       1 <1>        -0.334700 
      3 C          -1.326453    2.513430   -0.225705 C.ar      1 <1>        -0.014200 
      4 C          -0.424998    1.495871   -0.117955 C.ar      1 <1>         0.336600 
      5 C          -0.362661    0.362659   -1.119820 C.3       1 <1>        -0.459800 
      6 C          -1.040312   -0.939988   -0.705449 C.ar      1 <1>         0.153300 
      7 C          -0.616094   -2.150543   -1.322445 C.ar      1 <1>        -0.184500 
      8 C          -1.220223   -3.348496   -1.023016 C.ar      1 <1>        -0.190600 
      9 C          -2.284938   -3.416410   -0.084633 C.ar      1 <1>         0.138300 
     10 C          -2.929795   -4.636179    0.251864 C.ar      1 <1>        -0.191900 
     11 C          -3.957272   -4.659314    1.168073 C.ar      1 <1>        -0.133500 
     12 C          -4.386101   -3.461148    1.790422 C.ar      1 <1>        -0.135600 
     13 C          -3.779885   -2.262938    1.485813 C.ar      1 <1>        -0.189000 
     14 C          -2.717451   -2.204887    0.544282 C.ar      1 <1>         0.138400 
     15 C          -2.072638   -0.983372    0.208733 C.ar      1 <1>        -0.255700 
     16 N           0.508706    1.456664    0.930428 N.ar      1 <1>        -0.544100 
     17 C           1.487574    0.375069    1.067347 C.3       1 <1>         0.045700 
     18 O           2.651897    0.720439    0.348035 O.3       1 <1>        -0.490100 
     19 C           3.899703    0.537832    1.031515 C.3       1 <1>         0.176600 
     20 O           3.865462    0.883260    2.376686 O.3       1 <1>        -0.620100 
     21 C           0.695812    2.536928    1.790919 C.ar      1 <1>         0.803500 
     22 O           1.599733    2.595128    2.620696 O.2       1 <1>        -0.542400 
     23 N          -0.230011    3.544050    1.655460 N.ar      1 <1>        -0.701700 
     24 C          -1.267913    3.632831    0.716680 C.ar      1 <1>         0.605600 
     25 O          -2.014899    4.601688    0.721111 O.2       1 <1>        -0.509600 
     26 H          -2.770910    3.572276   -3.224223 H         1 <1>         0.149000 
     27 H          -1.082738    3.073313   -3.004208 H         1 <1>         0.140300 
     28 H          -1.704438    4.502616   -2.157408 H         1 <1>         0.171500 
     29 H          -3.268224    3.080042   -0.836997 H         1 <1>         0.175400 
     30 H          -2.692559    1.629249   -1.642036 H         1 <1>         0.145300 
     31 H           0.687639    0.167518   -1.364297 H         1 <1>         0.195100 
     32 H          -0.815142    0.716206   -2.051264 H         1 <1>         0.191800 
     33 H           0.199056   -2.120094   -2.041838 H         1 <1>         0.130800 
     34 H          -0.883249   -4.264813   -1.502027 H         1 <1>         0.136100 
     35 H          -2.597511   -5.553937   -0.227739 H         1 <1>         0.133200 
     36 H          -4.443927   -5.598078    1.417765 H         1 <1>         0.134500 
     37 H          -5.197923   -3.492033    2.511994 H         1 <1>         0.135300 
     38 H          -4.107846   -1.342541    1.963042 H         1 <1>         0.135200 
     39 H          -2.410843   -0.070657    0.693333 H         1 <1>         0.137200 
     40 H           1.041919   -0.542874    0.682957 H         1 <1>         0.169300 
     41 H           1.705243    0.259568    2.128089 H         1 <1>         0.202400 
     42 H           4.596363    1.149510    0.442160 H         1 <1>         0.137600 
     43 H           4.213375   -0.513651    0.993279 H         1 <1>         0.138000 
     44 H           3.370471    1.723220    2.470310 H         1 <1>         0.430900 
     45 H          -0.121262    4.329177    2.287883 H         1 <1>         0.356000 
@<TRIPOS>BOND
     1   12   37 1    
     2   13   38 1    
     3   23   45 1    
     4   13   12 ar   
     5   12   11 ar   
     6   21   22 2    
     7   14   13 ar   
     8   21   23 ar   
     9   24   23 ar   
    10   11   36 1    
    11   16   21 ar   
    12   24   25 2    
    13   10   11 ar   
    14   20   44 1    
    15   17   41 1    
    16    3   24 ar   
    17   15   39 1    
    18   19   20 1    
    19   15   14 ar   
    20   14    9 ar   
    21   16   17 1    
    22    4   16 ar   
    23    6   15 ar   
    24   17   40 1    
    25   17   18 1    
    26    9   10 ar   
    27   10   35 1    
    28    2   29 1    
    29    4    3 ar   
    30    3    2 1    
    31    9    8 ar   
    32    5    4 1    
    33   19   43 1    
    34   18   19 1    
    35   19   42 1    
    36    2   30 1    
    37    2    1 1    
    38    6    5 1    
    39    6    7 ar   
    40    5   31 1    
    41    5   32 1    
    42    8    7 ar   
    43    8   34 1    
    44    1   28 1    
    45    7   33 1    
    46    1   26 1    
    47    1   27 1    
@<TRIPOS>SUBSTRUCTURE
     1 ****       37 TEMP              0 ****  ****    0 ROOT 
