#	Name:			HYP-2005-CJCU-254-7
#	Creating user name:	Administrator
#	Creation time:		Sun Jul 05 16:45:43 2020

#	Modifying user name:	Administrator
#	Modification time:	Sun Jul 05 16:48:40 2020

@<TRIPOS>MOLECULE
HYP-2005-CJCU-254-7
   47    49     1     0     0
SMALL
MULLIKEN_CHARGES
INVALID_CHARGES
Gaussian 16 #p B3LYP/6-31G* opt
@<TRIPOS>ATOM
      1 C           3.625928   -0.262459    0.152974 C.3       1 <1>        -0.207000 
      2 O           2.542471    0.641699    0.009756 O.3       1 <1>        -0.456400 
      3 C           1.543706    0.432318    0.990216 C.3       1 <1>         0.076800 
      4 N           0.551348    1.486892    0.887669 N.ar      1 <1>        -0.559500 
      5 C          -0.436303    1.487376   -0.113452 C.ar      1 <1>         0.314200 
      6 C          -0.377705    0.321064   -1.079500 C.3       1 <1>        -0.477300 
      7 C          -1.111981   -0.946743   -0.652754 C.ar      1 <1>         0.116500 
      8 C          -1.908112   -0.984600    0.474350 C.ar      1 <1>        -0.200000 
      9 C          -2.594329   -2.161931    0.859711 C.ar      1 <1>        -0.135900 
     10 C          -2.482432   -3.305539    0.108705 C.ar      1 <1>        -0.187900 
     11 C          -1.679540   -3.320349   -1.063801 C.ar      1 <1>         0.136300 
     12 C          -1.554354   -4.492120   -1.856293 C.ar      1 <1>        -0.193600 
     13 C          -0.779743   -4.501960   -2.993996 C.ar      1 <1>        -0.131800 
     14 C          -0.093719   -3.330481   -3.388030 C.ar      1 <1>        -0.133500 
     15 C          -0.192411   -2.176935   -2.639865 C.ar      1 <1>        -0.199600 
     16 C          -0.981797   -2.129392   -1.457429 C.ar      1 <1>         0.073600 
     17 C          -1.365258    2.485990   -0.204568 C.ar      1 <1>         0.002200 
     18 C          -2.499817    2.501214   -1.224167 C.3       1 <1>        -0.143400 
     19 C          -3.884998    2.557702   -0.546215 C.3       1 <1>        -0.456300 
     20 C          -2.332920    3.637017   -2.253643 C.3       1 <1>        -0.452300 
     21 C          -1.268597    3.629229    0.710905 C.ar      1 <1>         0.604100 
     22 O          -1.993921    4.616810    0.718557 O.2       1 <1>        -0.511800 
     23 N          -0.227463    3.545416    1.643541 N.ar      1 <1>        -0.700200 
     24 C           0.706428    2.545397    1.795766 C.ar      1 <1>         0.791300 
     25 O           1.573743    2.579482    2.653215 O.2       1 <1>        -0.514600 
     26 H           4.343630   -0.020232   -0.633594 H         1 <1>         0.169300 
     27 H           4.113723   -0.151649    1.132778 H         1 <1>         0.150000 
     28 H           3.303894   -1.308982    0.035624 H         1 <1>         0.139900 
     29 H           1.057427   -0.541139    0.854709 H         1 <1>         0.155200 
     30 H           1.967229    0.494134    1.995960 H         1 <1>         0.190200 
     31 H          -0.773118    0.655666   -2.042925 H         1 <1>         0.188500 
     32 H           0.676346    0.096851   -1.269015 H         1 <1>         0.203800 
     33 H          -2.019544   -0.092029    1.082594 H         1 <1>         0.138400 
     34 H          -3.210195   -2.149090    1.754649 H         1 <1>         0.136300 
     35 H          -3.006253   -4.213590    0.397063 H         1 <1>         0.133300 
     36 H          -2.087746   -5.387411   -1.545562 H         1 <1>         0.133900 
     37 H          -0.694368   -5.405742   -3.590888 H         1 <1>         0.134300 
     38 H           0.515010   -3.339823   -4.288061 H         1 <1>         0.133700 
     39 H           0.341577   -1.290429   -2.965860 H         1 <1>         0.136000 
     40 H          -2.470924    1.554519   -1.771300 H         1 <1>         0.132400 
     41 H          -4.014972    3.490636    0.006090 H         1 <1>         0.184800 
     42 H          -4.017937    1.718895    0.146822 H         1 <1>         0.137000 
     43 H          -4.671561    2.490386   -1.307066 H         1 <1>         0.138600 
     44 H          -3.135597    3.591287   -2.999280 H         1 <1>         0.139100 
     45 H          -1.375793    3.555617   -2.782339 H         1 <1>         0.135200 
     46 H          -2.373654    4.612770   -1.763317 H         1 <1>         0.182700 
     47 H          -0.137385    4.328037    2.281852 H         1 <1>         0.353600 
@<TRIPOS>BOND
     1   20   45 1    
     2   14   38 1    
     3   20   44 1    
     4   20   46 1    
     5   18   20 1    
     6   15   39 1    
     7    1   26 1    
     8   15   14 ar   
     9   14   13 ar   
    10    6   31 1    
    11   16   15 ar   
    12    6   32 1    
    13   13   37 1    
    14   18   40 1    
    15    2    1 1    
    16    3    2 1    
    17   17   18 1    
    18   18   19 1    
    19    1   28 1    
    20    1   27 1    
    21   13   12 ar   
    22    5    6 1    
    23    6    7 1    
    24    5   17 ar   
    25   17   21 ar   
    26    4    5 ar   
    27   19   43 1    
    28    7   16 ar   
    29   16   11 ar   
    30   21   22 2    
    31   21   23 ar   
    32   19   41 1    
    33   19   42 1    
    34    7    8 ar   
    35    4    3 1    
    36    4   24 ar   
    37    3   29 1    
    38    3   30 1    
    39   12   11 ar   
    40   12   36 1    
    41   23   24 ar   
    42   23   47 1    
    43   24   25 2    
    44   11   10 ar   
    45    8   33 1    
    46    8    9 ar   
    47   10    9 ar   
    48   10   35 1    
    49    9   34 1    
@<TRIPOS>SUBSTRUCTURE
     1 ****       38 TEMP              0 ****  ****    0 ROOT 
