#	Name:			HYP-2005-CJCU-254-4
#	Creating user name:	Administrator
#	Creation time:		Sun Jul 05 16:45:43 2020

#	Modifying user name:	Administrator
#	Modification time:	Sun Jul 05 16:48:40 2020

@<TRIPOS>MOLECULE
HYP-2005-CJCU-254-4
   51    53     1     0     0
SMALL
MULLIKEN_CHARGES
INVALID_CHARGES
Gaussian 16 #p B3LYP/6-31G* opt
@<TRIPOS>ATOM
      1 C          -2.147163    3.887901   -2.230460 C.3       1 <1>        -0.456200 
      2 C          -2.353148    2.626258   -1.365445 C.3       1 <1>        -0.144100 
      3 C          -3.793963    2.547296   -0.821382 C.3       1 <1>        -0.451500 
      4 C          -1.315782    2.522843   -0.249966 C.ar      1 <1>        -0.000600 
      5 C          -0.453073    1.471493   -0.093813 C.ar      1 <1>         0.309800 
      6 C          -0.494702    0.252841   -0.994458 C.3       1 <1>        -0.474900 
      7 C           0.506844    0.232357   -2.145711 C.ar      1 <1>         0.115600 
      8 C           1.298840    1.323781   -2.439645 C.ar      1 <1>        -0.197600 
      9 C           2.222636    1.302610   -3.512528 C.ar      1 <1>        -0.135800 
     10 C           2.350589    0.180649   -4.293050 C.ar      1 <1>        -0.186400 
     11 C           1.554166   -0.968422   -4.038229 C.ar      1 <1>         0.136400 
     12 C           1.667960   -2.135730   -4.838811 C.ar      1 <1>        -0.192800 
     13 C           0.889363   -3.244250   -4.595134 C.ar      1 <1>        -0.131600 
     14 C          -0.043373   -3.228518   -3.533084 C.ar      1 <1>        -0.132700 
     15 C          -0.176287   -2.112402   -2.735102 C.ar      1 <1>        -0.201000 
     16 C           0.614189   -0.950053   -2.953678 C.ar      1 <1>         0.076600 
     17 N           0.531076    1.465073    0.912707 N.ar      1 <1>        -0.565500 
     18 C           1.511190    0.381966    1.129075 C.3       1 <1>         0.079600 
     19 O           1.242841   -0.403849    2.258126 O.3       1 <1>        -0.450400 
     20 C           0.184052   -1.340740    2.145050 C.3       1 <1>        -0.045000 
     21 C           0.087454   -2.087894    3.474235 C.3       1 <1>        -0.057700 
     22 O          -0.958124   -3.049824    3.450218 O.3       1 <1>        -0.610300 
     23 C           0.699566    2.542458    1.799049 C.ar      1 <1>         0.790600 
     24 O           1.594145    2.595313    2.624697 O.2       1 <1>        -0.506400 
     25 N          -0.237945    3.541716    1.653425 N.ar      1 <1>        -0.699900 
     26 C          -1.263195    3.635057    0.708052 C.ar      1 <1>         0.603300 
     27 O          -2.014814    4.602638    0.737482 O.2       1 <1>        -0.512000 
     28 H          -1.136124    3.913237   -2.653198 H         1 <1>         0.136800 
     29 H          -2.858594    3.882855   -3.064716 H         1 <1>         0.139000 
     30 H          -2.304229    4.796682   -1.646130 H         1 <1>         0.185900 
     31 H          -2.211987    1.777655   -2.040324 H         1 <1>         0.130600 
     32 H          -3.957702    1.616107   -0.265842 H         1 <1>         0.133300 
     33 H          -4.002128    3.387405   -0.154578 H         1 <1>         0.185000 
     34 H          -4.511733    2.576791   -1.649771 H         1 <1>         0.139500 
     35 H          -1.506065    0.158947   -1.397300 H         1 <1>         0.193100 
     36 H          -0.361125   -0.643942   -0.383009 H         1 <1>         0.174400 
     37 H           1.214160    2.225845   -1.841349 H         1 <1>         0.140700 
     38 H           2.828424    2.182542   -3.709640 H         1 <1>         0.138800 
     39 H           3.058882    0.155093   -5.117461 H         1 <1>         0.135400 
     40 H           2.385718   -2.135993   -5.655693 H         1 <1>         0.135900 
     41 H           0.986454   -4.129731   -5.217013 H         1 <1>         0.136100 
     42 H          -0.661607   -4.102483   -3.346593 H         1 <1>         0.134300 
     43 H          -0.906467   -2.124361   -1.932308 H         1 <1>         0.131100 
     44 H           2.466431    0.861174    1.332932 H         1 <1>         0.196500 
     45 H           1.582807   -0.215189    0.217766 H         1 <1>         0.158900 
     46 H          -0.776904   -0.847276    1.939363 H         1 <1>         0.146300 
     47 H           0.383934   -2.055259    1.326180 H         1 <1>         0.112300 
     48 H          -0.157201   -1.379547    4.270375 H         1 <1>         0.170900 
     49 H           1.062024   -2.536033    3.715774 H         1 <1>         0.141000 
     50 H          -0.661575   -3.798283    2.910132 H         1 <1>         0.391300 
     51 H          -0.156005    4.315935    2.303058 H         1 <1>         0.353600 
@<TRIPOS>BOND
     1    9   38 1    
     2   18   44 1    
     3   23   24 2    
     4   10   39 1    
     5    9   10 ar   
     6    8    9 ar   
     7   11   10 ar   
     8    8   37 1    
     9   25   23 ar   
    10   17   23 ar   
    11   18   45 1    
    12   18   19 1    
    13   17   18 1    
    14    7    8 ar   
    15   25   51 1    
    16   19   20 1    
    17   12   40 1    
    18   26   25 ar   
    19    5   17 ar   
    20   11   12 ar   
    21   16   11 ar   
    22   12   13 ar   
    23    7   16 ar   
    24    6    7 1    
    25   21   49 1    
    26   26   27 2    
    27    4   26 ar   
    28    1   28 1    
    29    4    5 ar   
    30    5    6 1    
    31   16   15 ar   
    32   20   47 1    
    33   20   21 1    
    34   20   46 1    
    35   21   48 1    
    36   21   22 1    
    37    2    4 1    
    38    6   36 1    
    39    6   35 1    
    40   13   41 1    
    41   13   14 ar   
    42    1   30 1    
    43    1    2 1    
    44    1   29 1    
    45   15   14 ar   
    46   15   43 1    
    47   14   42 1    
    48    2   31 1    
    49    2    3 1    
    50   22   50 1    
    51    3   33 1    
    52    3   32 1    
    53    3   34 1    
@<TRIPOS>SUBSTRUCTURE
     1 ****       28 TEMP              0 ****  ****    0 ROOT 
