#	Name:			HYP-2005-CJCU-254-3
#	Creating user name:	Administrator
#	Creation time:		Sun Jul 05 16:45:43 2020

#	Modifying user name:	Administrator
#	Modification time:	Sun Jul 05 16:48:40 2020

@<TRIPOS>MOLECULE
HYP-2005-CJCU-254-3
   51    53     1     0     0
SMALL
MULLIKEN_CHARGES
INVALID_CHARGES
Gaussian 16 #p B3LYP/6-31G* opt
@<TRIPOS>ATOM
      1 C          -4.505297    2.720561    0.340405 C.3       1 <1>        -0.436200 
      2 C          -3.838571    2.035347   -0.856225 C.3       1 <1>        -0.251500 
      3 C          -2.446426    2.586606   -1.250305 C.3       1 <1>        -0.336500 
      4 C          -1.362703    2.488774   -0.198233 C.ar      1 <1>         0.005400 
      5 C          -0.446537    1.479183   -0.111916 C.ar      1 <1>         0.322300 
      6 C          -0.405088    0.335115   -1.121256 C.3       1 <1>        -0.475400 
      7 C          -1.584772   -0.630194   -1.229750 C.ar      1 <1>         0.138400 
      8 C          -2.072109   -0.890345   -2.497458 C.ar      1 <1>        -0.206100 
      9 C          -3.091825   -1.839500   -2.734512 C.ar      1 <1>        -0.127600 
     10 C          -3.630140   -2.542832   -1.685742 C.ar      1 <1>        -0.190900 
     11 C          -3.170731   -2.319719   -0.360911 C.ar      1 <1>         0.144500 
     12 C          -3.718846   -3.046965    0.729627 C.ar      1 <1>        -0.193900 
     13 C          -3.282477   -2.839351    2.017243 C.ar      1 <1>        -0.131000 
     14 C          -2.275261   -1.880057    2.267384 C.ar      1 <1>        -0.141700 
     15 C          -1.722992   -1.158016    1.231985 C.ar      1 <1>        -0.193700 
     16 C          -2.136612   -1.350143   -0.116121 C.ar      1 <1>         0.073500 
     17 N           0.566142    1.492914    0.872967 N.ar      1 <1>        -0.568600 
     18 C           1.607083    0.452375    0.963439 C.3       1 <1>         0.043700 
     19 O           2.521563    0.466377   -0.104045 O.3       1 <1>        -0.467700 
     20 C           3.395225    1.595742   -0.183951 C.3       1 <1>        -0.046800 
     21 C           4.479670    1.600864    0.891598 C.3       1 <1>        -0.065000 
     22 O           5.384309    2.637200    0.524012 O.3       1 <1>        -0.621800 
     23 C           0.699165    2.542645    1.795913 C.ar      1 <1>         0.781600 
     24 O           1.582368    2.591319    2.642542 O.2       1 <1>        -0.526900 
     25 N          -0.252349    3.526446    1.675896 N.ar      1 <1>        -0.697600 
     26 C          -1.269494    3.628499    0.718479 C.ar      1 <1>         0.607600 
     27 O          -1.976616    4.626811    0.695986 O.2       1 <1>        -0.512400 
     28 H          -5.513161    2.316936    0.494286 H         1 <1>         0.133400 
     29 H          -4.584399    3.802126    0.194346 H         1 <1>         0.161700 
     30 H          -3.941083    2.557606    1.265139 H         1 <1>         0.141200 
     31 H          -4.484872    2.142673   -1.738287 H         1 <1>         0.130200 
     32 H          -3.760944    0.960158   -0.663759 H         1 <1>         0.150100 
     33 H          -2.554476    3.648462   -1.498005 H         1 <1>         0.168800 
     34 H          -2.124270    2.075387   -2.163618 H         1 <1>         0.131800 
     35 H          -0.289981    0.806662   -2.104003 H         1 <1>         0.181400 
     36 H           0.513156   -0.239019   -0.993945 H         1 <1>         0.210000 
     37 H          -1.655625   -0.351084   -3.345072 H         1 <1>         0.127700 
     38 H          -3.441815   -2.006006   -3.749484 H         1 <1>         0.135100 
     39 H          -4.413081   -3.278610   -1.851673 H         1 <1>         0.133900 
     40 H          -4.498011   -3.776964    0.523210 H         1 <1>         0.133800 
     41 H          -3.711298   -3.403449    2.840633 H         1 <1>         0.134900 
     42 H          -1.937622   -1.705442    3.285360 H         1 <1>         0.134700 
     43 H          -0.972528   -0.413043    1.461585 H         1 <1>         0.138400 
     44 H           1.141363   -0.532556    0.939192 H         1 <1>         0.170200 
     45 H           2.083782    0.605612    1.930684 H         1 <1>         0.201900 
     46 H           2.831878    2.536760   -0.149780 H         1 <1>         0.150000 
     47 H           3.870371    1.522624   -1.165852 H         1 <1>         0.166200 
     48 H           4.035683    1.790755    1.877599 H         1 <1>         0.155800 
     49 H           4.972011    0.615644    0.911389 H         1 <1>         0.129100 
     50 H           5.947300    2.828056    1.288101 H         1 <1>         0.399400 
     51 H          -0.156756    4.306655    2.316136 H         1 <1>         0.354200 
@<TRIPOS>BOND
     1    8   37 1    
     2    9   38 1    
     3    6   35 1    
     4    3   34 1    
     5    8    9 ar   
     6    7    8 ar   
     7    9   10 ar   
     8   20   47 1    
     9    3   33 1    
    10    2   31 1    
    11    3    2 1    
    12    4    3 1    
    13    6   36 1    
    14    6    7 1    
    15    5    6 1    
    16    7   16 ar   
    17   20   46 1    
    18   19   20 1    
    19   20   21 1    
    20   10   39 1    
    21   11   10 ar   
    22   21   22 1    
    23   22   50 1    
    24    2   32 1    
    25    2    1 1    
    26   18   19 1    
    27    5    4 ar   
    28    4   26 ar   
    29   17    5 ar   
    30   21   49 1    
    31   21   48 1    
    32   16   11 ar   
    33   16   15 ar   
    34   11   12 ar   
    35    1   29 1    
    36   26   27 2    
    37   26   25 ar   
    38   17   18 1    
    39   17   23 ar   
    40   18   44 1    
    41   18   45 1    
    42    1   28 1    
    43    1   30 1    
    44   25   23 ar   
    45   25   51 1    
    46   23   24 2    
    47   15   43 1    
    48   15   14 ar   
    49   12   40 1    
    50   12   13 ar   
    51   14   13 ar   
    52   14   42 1    
    53   13   41 1    
@<TRIPOS>SUBSTRUCTURE
     1 ****       34 TEMP              0 ****  ****    0 ROOT 
