#	Name:			HYP-2005-CJCU-254-21
#	Creating user name:	Administrator
#	Creation time:		Sun Jul 05 16:45:43 2020

#	Modifying user name:	Administrator
#	Modification time:	Sun Jul 05 16:48:40 2020

@<TRIPOS>MOLECULE
HYP-2005-CJCU-254-21
   44    46     1     0     0
SMALL
MULLIKEN_CHARGES
INVALID_CHARGES
Gaussian 16 #p B3LYP/6-31G* opt
@<TRIPOS>ATOM
      1 C           4.363559    1.484093   -1.392542 C.3       1 <1>        -0.453700 
      2 C           2.964536    1.021792   -1.021173 C.3       1 <1>        -0.027600 
      3 O           2.885629    0.966398    0.398725 O.3       1 <1>        -0.443100 
      4 C           1.674077    0.509661    0.932411 C.3       1 <1>         0.077700 
      5 N           0.584659    1.503261    0.853412 N.ar      1 <1>        -0.573500 
      6 C          -0.452966    1.471973   -0.088671 C.ar      1 <1>         0.342900 
      7 C          -0.569721    0.243233   -0.969899 C.3       1 <1>        -0.452900 
      8 C          -1.064813   -1.015424   -0.263343 C.ar      1 <1>         0.175800 
      9 C          -2.109074   -0.945962    0.699313 C.ar      1 <1>        -0.182300 
     10 C          -2.595291   -2.085699    1.296031 C.ar      1 <1>        -0.191900 
     11 C          -2.072225   -3.365902    0.971601 C.ar      1 <1>         0.136200 
     12 C          -2.551754   -4.561479    1.570054 C.ar      1 <1>        -0.190200 
     13 C          -2.016694   -5.783128    1.228401 C.ar      1 <1>        -0.133800 
     14 C          -0.975238   -5.864290    0.271309 C.ar      1 <1>        -0.135600 
     15 C          -0.487954   -4.723311   -0.325668 C.ar      1 <1>        -0.189700 
     16 C          -1.019142   -3.447474    0.004457 C.ar      1 <1>         0.144800 
     17 C          -0.539905   -2.249866   -0.590182 C.ar      1 <1>        -0.274700 
     18 C          -1.361880    2.486276   -0.187960 C.ar      1 <1>        -0.005700 
     19 C          -2.506403    2.516513   -1.174895 C.3       1 <1>        -0.547800 
     20 C          -1.262667    3.640797    0.710716 C.ar      1 <1>         0.597700 
     21 O          -2.003398    4.615544    0.707595 O.2       1 <1>        -0.512700 
     22 N          -0.224833    3.553570    1.642451 N.ar      1 <1>        -0.700800 
     23 C           0.705623    2.544592    1.790671 C.ar      1 <1>         0.789300 
     24 O           1.555439    2.560578    2.663419 O.2       1 <1>        -0.505500 
     25 H           4.470204    1.541052   -2.481333 H         1 <1>         0.145300 
     26 H           4.561632    2.473888   -0.969835 H         1 <1>         0.169400 
     27 H           5.113128    0.788284   -1.003014 H         1 <1>         0.163300 
     28 H           2.212939    1.718836   -1.423205 H         1 <1>         0.133900 
     29 H           2.760257    0.025218   -1.448456 H         1 <1>         0.119900 
     30 H           1.335567   -0.413291    0.457280 H         1 <1>         0.153400 
     31 H           1.865604    0.335997    1.989040 H         1 <1>         0.196600 
     32 H           0.385349    0.028740   -1.459219 H         1 <1>         0.167900 
     33 H          -1.263953    0.488571   -1.778120 H         1 <1>         0.189500 
     34 H          -2.519765    0.022953    0.969261 H         1 <1>         0.141800 
     35 H          -3.392978   -2.016848    2.031852 H         1 <1>         0.138300 
     36 H          -3.350890   -4.495139    2.304626 H         1 <1>         0.134900 
     37 H          -2.391528   -6.691250    1.692261 H         1 <1>         0.135000 
     38 H          -0.561003   -6.834226    0.010109 H         1 <1>         0.134800 
     39 H           0.311734   -4.784386   -1.060126 H         1 <1>         0.131400 
     40 H           0.258965   -2.322839   -1.326613 H         1 <1>         0.125300 
     41 H          -2.158171    2.567446   -2.214072 H         1 <1>         0.160800 
     42 H          -3.102358    3.410577   -0.981376 H         1 <1>         0.202100 
     43 H          -3.162722    1.643422   -1.085630 H         1 <1>         0.160100 
     44 H          -0.144141    4.318109    2.303296 H         1 <1>         0.353500 
@<TRIPOS>BOND
     1   23   24 2    
     2    4   31 1    
     3   22   44 1    
     4   12   36 1    
     5   23   22 ar   
     6    5   23 ar   
     7   13   37 1    
     8   10   35 1    
     9   22   20 ar   
    10   12   13 ar   
    11   11   12 ar   
    12    3    4 1    
    13    4    5 1    
    14    4   30 1    
    15   14   13 ar   
    16    2    3 1    
    17    5    6 ar   
    18   10   11 ar   
    19    9   10 ar   
    20   16   11 ar   
    21    9   34 1    
    22   14   38 1    
    23   15   14 ar   
    24    8    9 ar   
    25   20   21 2    
    26   18   20 ar   
    27    1   27 1    
    28   16   15 ar   
    29   17   16 ar   
    30    1   26 1    
    31   15   39 1    
    32    6   18 ar   
    33    6    7 1    
    34    8   17 ar   
    35    7    8 1    
    36    2    1 1    
    37    2   29 1    
    38    2   28 1    
    39   18   19 1    
    40    1   25 1    
    41   17   40 1    
    42    7   32 1    
    43    7   33 1    
    44   19   42 1    
    45   19   43 1    
    46   19   41 1    
@<TRIPOS>SUBSTRUCTURE
     1 ****       35 TEMP              0 ****  ****    0 ROOT 
