#	Name:			HYP-2005-CJCU-254-8
#	Creating user name:	Administrator
#	Creation time:		Sun Jul 05 16:45:43 2020

#	Modifying user name:	Administrator
#	Modification time:	Sun Jul 05 16:48:40 2020

@<TRIPOS>MOLECULE
HYP-2005-CJCU-254-8
   44    46     1     0     0
SMALL
MULLIKEN_CHARGES
INVALID_CHARGES
Gaussian 16 #p B3LYP/6-31G* opt
@<TRIPOS>ATOM
      1 C           2.087314   -1.725778    3.346275 C.3       1 <1>        -0.460600 
      2 C           1.373021   -1.866608    2.004436 C.3       1 <1>        -0.029400 
      3 O           0.626217   -0.704078    1.637693 O.3       1 <1>        -0.469600 
      4 C           1.422410    0.343771    1.121370 C.3       1 <1>         0.068000 
      5 N           0.566497    1.491408    0.870640 N.ar      1 <1>        -0.575400 
      6 C          -0.451297    1.476335   -0.105043 C.ar      1 <1>         0.347300 
      7 C          -0.521036    0.270788   -1.034875 C.3       1 <1>        -0.457400 
      8 C          -0.429323    0.521491   -2.538848 C.ar      1 <1>         0.134200 
      9 C          -1.428476    0.007254   -3.343582 C.ar      1 <1>        -0.210100 
     10 C          -1.393947    0.119454   -4.752140 C.ar      1 <1>        -0.128200 
     11 C          -0.341962    0.755722   -5.363563 C.ar      1 <1>        -0.191400 
     12 C           0.717044    1.298935   -4.589266 C.ar      1 <1>         0.142700 
     13 C           1.816165    1.948736   -5.212230 C.ar      1 <1>        -0.194600 
     14 C           2.851588    2.467221   -4.469967 C.ar      1 <1>        -0.131100 
     15 C           2.826678    2.357005   -3.060953 C.ar      1 <1>        -0.141500 
     16 C           1.773840    1.735502   -2.425760 C.ar      1 <1>        -0.193700 
     17 C           0.684217    1.184516   -3.156263 C.ar      1 <1>         0.078700 
     18 C          -1.356839    2.491016   -0.195994 C.ar      1 <1>         0.006600 
     19 C          -2.497300    2.526450   -1.180071 C.3       1 <1>        -0.531000 
     20 C          -1.262677    3.636459    0.711000 C.ar      1 <1>         0.597800 
     21 O          -2.010919    4.604318    0.723666 O.2       1 <1>        -0.510000 
     22 N          -0.203694    3.564532    1.624159 N.ar      1 <1>        -0.697600 
     23 C           0.702147    2.543873    1.795589 C.ar      1 <1>         0.787900 
     24 O           1.556760    2.568652    2.667618 O.2       1 <1>        -0.517900 
     25 H           2.574709   -2.671278    3.611093 H         1 <1>         0.148300 
     26 H           1.369884   -1.472991    4.133306 H         1 <1>         0.168900 
     27 H           2.857878   -0.948184    3.325995 H         1 <1>         0.161500 
     28 H           2.088276   -2.122201    1.205533 H         1 <1>         0.126500 
     29 H           0.633432   -2.671827    2.052138 H         1 <1>         0.154800 
     30 H           2.176857    0.680153    1.833021 H         1 <1>         0.201400 
     31 H           1.918616    0.028892    0.192684 H         1 <1>         0.138200 
     32 H           0.223953   -0.472177   -0.749880 H         1 <1>         0.190300 
     33 H          -1.483916   -0.216850   -0.841672 H         1 <1>         0.182900 
     34 H          -2.271690   -0.500322   -2.881068 H         1 <1>         0.126500 
     35 H          -2.204916   -0.298731   -5.341930 H         1 <1>         0.134100 
     36 H          -0.302024    0.851022   -6.445934 H         1 <1>         0.133300 
     37 H           1.822748    2.027065   -6.296938 H         1 <1>         0.133000 
     38 H           3.685587    2.961202   -4.960644 H         1 <1>         0.134100 
     39 H           3.642467    2.769420   -2.473504 H         1 <1>         0.134400 
     40 H           1.776464    1.680997   -1.344299 H         1 <1>         0.137700 
     41 H          -3.005948    1.559597   -1.255363 H         1 <1>         0.147200 
     42 H          -2.166376    2.799982   -2.188271 H         1 <1>         0.178000 
     43 H          -3.217451    3.277785   -0.849449 H         1 <1>         0.191500 
     44 H          -0.116889    4.336065    2.275722 H         1 <1>         0.353900 
@<TRIPOS>BOND
     1    9   34 1    
     2   10   35 1    
     3   19   41 1    
     4    7   33 1    
     5    9   10 ar   
     6    8    9 ar   
     7   10   11 ar   
     8    2   29 1    
     9   19   43 1    
    10   19   42 1    
    11   18   19 1    
    12    7   32 1    
    13    7    8 1    
    14    6    7 1    
    15    8   17 ar   
    16    3    2 1    
    17    2   28 1    
    18    2    1 1    
    19    4    3 1    
    20   11   36 1    
    21   12   11 ar   
    22    1   26 1    
    23    6   18 ar   
    24   18   20 ar   
    25    1   25 1    
    26    5    6 ar   
    27    1   27 1    
    28   20   21 2    
    29   20   22 ar   
    30   17   12 ar   
    31   17   16 ar   
    32   12   13 ar   
    33    5    4 1    
    34    5   23 ar   
    35    4   31 1    
    36    4   30 1    
    37   22   23 ar   
    38   22   44 1    
    39   23   24 2    
    40   16   40 1    
    41   16   15 ar   
    42   13   37 1    
    43   13   14 ar   
    44   15   14 ar   
    45   15   39 1    
    46   14   38 1    
@<TRIPOS>SUBSTRUCTURE
     1 ****       41 TEMP              0 ****  ****    0 ROOT 
