#	Name:			HYP-2005-CJCU-254-19
#	Creating user name:	Administrator
#	Creation time:		Sun Jul 05 16:45:42 2020

#	Modifying user name:	Administrator
#	Modification time:	Sun Jul 05 16:48:40 2020

@<TRIPOS>MOLECULE
HYP-2005-CJCU-254-19
   44    46     1     0     0
SMALL
MULLIKEN_CHARGES
INVALID_CHARGES
Gaussian 16 #p B3LYP/6-31G* opt
@<TRIPOS>ATOM
      1 C          -2.075596    3.436274   -2.443550 C.3       1 <1>        -0.446600 
      2 C          -2.459726    2.575464   -1.225652 C.3       1 <1>        -0.335000 
      3 C          -1.354740    2.493769   -0.197765 C.ar      1 <1>         0.005100 
      4 C          -0.462163    1.468006   -0.093828 C.ar      1 <1>         0.325500 
      5 C          -0.562564    0.240918   -0.991819 C.3       1 <1>        -0.436300 
      6 C          -1.742761   -0.679876   -0.694702 C.ar      1 <1>         0.181100 
      7 C          -2.041008   -1.085060    0.635971 C.ar      1 <1>        -0.176300 
      8 C          -3.080810   -1.948278    0.889968 C.ar      1 <1>        -0.197300 
      9 C          -3.885078   -2.465795   -0.160845 C.ar      1 <1>         0.138200 
     10 C          -4.964899   -3.358929    0.069815 C.ar      1 <1>        -0.191700 
     11 C          -5.718805   -3.838710   -0.977819 C.ar      1 <1>        -0.134500 
     12 C          -5.426169   -3.445150   -2.306885 C.ar      1 <1>        -0.136800 
     13 C          -4.386147   -2.579725   -2.562838 C.ar      1 <1>        -0.190400 
     14 C          -3.589261   -2.067726   -1.503913 C.ar      1 <1>         0.143400 
     15 C          -2.511082   -1.170860   -1.731001 C.ar      1 <1>        -0.274800 
     16 N           0.578263    1.504591    0.855452 N.ar      1 <1>        -0.574000 
     17 C           1.612867    0.489183    0.925987 C.3       1 <1>         0.075800 
     18 O           1.065396   -0.697513    1.458034 O.3       1 <1>        -0.453300 
     19 C           2.042781   -1.709586    1.634077 C.3       1 <1>        -0.205600 
     20 C           0.700386    2.542069    1.799019 C.ar      1 <1>         0.785100 
     21 O           1.573728    2.578408    2.651410 O.2       1 <1>        -0.515100 
     22 N          -0.242131    3.535719    1.666428 N.ar      1 <1>        -0.699400 
     23 C          -1.261037    3.636301    0.711338 C.ar      1 <1>         0.605800 
     24 O          -1.992328    4.617728    0.699580 O.2       1 <1>        -0.511800 
     25 H          -1.827697    4.454652   -2.129464 H         1 <1>         0.171400 
     26 H          -2.909789    3.493358   -3.152205 H         1 <1>         0.146200 
     27 H          -1.209268    3.021647   -2.973630 H         1 <1>         0.133400 
     28 H          -3.330338    3.029755   -0.741539 H         1 <1>         0.172300 
     29 H          -2.761514    1.577215   -1.549822 H         1 <1>         0.151500 
     30 H           0.351821   -0.351602   -0.935264 H         1 <1>         0.181300 
     31 H          -0.639040    0.585813   -2.027998 H         1 <1>         0.174200 
     32 H          -1.427939   -0.718422    1.451841 H         1 <1>         0.157100 
     33 H          -3.299214   -2.249321    1.912008 H         1 <1>         0.132700 
     34 H          -5.187147   -3.658222    1.091547 H         1 <1>         0.131300 
     35 H          -6.542642   -4.521545   -0.788928 H         1 <1>         0.131200 
     36 H          -6.028242   -3.829857   -3.125659 H         1 <1>         0.131200 
     37 H          -4.161032   -2.275687   -3.582559 H         1 <1>         0.128900 
     38 H          -2.296185   -0.871373   -2.755543 H         1 <1>         0.123800 
     39 H           2.396854    0.887353    1.574538 H         1 <1>         0.197500 
     40 H           2.029470    0.310870   -0.075829 H         1 <1>         0.140300 
     41 H           1.524809   -2.579060    2.043285 H         1 <1>         0.174000 
     42 H           2.514535   -1.990033    0.679212 H         1 <1>         0.136900 
     43 H           2.828809   -1.391950    2.334960 H         1 <1>         0.149800 
     44 H          -0.160671    4.302633    2.324321 H         1 <1>         0.353900 
@<TRIPOS>BOND
     1   10   34 1    
     2    8   33 1    
     3   22   44 1    
     4   10   11 ar   
     5    9   10 ar   
     6   11   35 1    
     7   23   24 2    
     8    8    9 ar   
     9    7    8 ar   
    10   23   22 ar   
    11   20   22 ar   
    12    7   32 1    
    13   12   11 ar   
    14    3   23 ar   
    15   20   21 2    
    16   14    9 ar   
    17    2   28 1    
    18    6    7 ar   
    19   16   20 ar   
    20    3    2 1    
    21    4    3 ar   
    22   19   41 1    
    23    2   29 1    
    24    2    1 1    
    25    4   16 ar   
    26   16   17 1    
    27   12   36 1    
    28   13   12 ar   
    29   18   19 1    
    30   17   18 1    
    31   14   13 ar   
    32   15   14 ar   
    33    5    4 1    
    34   19   43 1    
    35    6   15 ar   
    36    6    5 1    
    37   17   39 1    
    38   19   42 1    
    39   17   40 1    
    40   13   37 1    
    41   15   38 1    
    42    1   25 1    
    43    5   30 1    
    44    5   31 1    
    45    1   26 1    
    46    1   27 1    
@<TRIPOS>SUBSTRUCTURE
     1 ****       33 TEMP              0 ****  ****    0 ROOT 
