#	Name:			HYP-2005-CJCU-254-14
#	Creating user name:	Administrator
#	Creation time:		Sun Jul 05 16:45:42 2020

#	Modifying user name:	Administrator
#	Modification time:	Sun Jul 05 16:48:40 2020

@<TRIPOS>MOLECULE
HYP-2005-CJCU-254-14
   57    60     1     0     0
SMALL
MULLIKEN_CHARGES
INVALID_CHARGES
Gaussian 16 #p B3LYP/6-31G* opt
@<TRIPOS>ATOM
      1 C          -3.239431    3.518918   -3.475562 C.3       1 <1>        -0.443200 
      2 C          -2.083876    3.411097   -2.476530 C.3       1 <1>        -0.253000 
      3 C          -2.452367    2.571108   -1.236804 C.3       1 <1>        -0.336000 
      4 C          -1.348742    2.498241   -0.206690 C.ar      1 <1>        -0.012900 
      5 C          -0.440044    1.487119   -0.110698 C.ar      1 <1>         0.329700 
      6 C          -0.419533    0.320647   -1.074539 C.3       1 <1>        -0.467800 
      7 C          -1.126174   -0.949030   -0.605881 C.ar      1 <1>         0.109800 
      8 C          -1.944664   -0.955611    0.505928 C.ar      1 <1>        -0.198100 
      9 C          -2.612592   -2.130086    0.929442 C.ar      1 <1>        -0.135300 
     10 C          -2.460419   -3.302412    0.231531 C.ar      1 <1>        -0.188300 
     11 C          -1.636187   -3.349482   -0.925082 C.ar      1 <1>         0.136400 
     12 C          -1.472361   -4.551089   -1.664098 C.ar      1 <1>        -0.193800 
     13 C          -0.680088   -4.592094   -2.788752 C.ar      1 <1>        -0.132000 
     14 C          -0.014589   -3.422984   -3.223113 C.ar      1 <1>        -0.134100 
     15 C          -0.149901   -2.241084   -2.526810 C.ar      1 <1>        -0.200900 
     16 C          -0.957429   -2.160985   -1.358351 C.ar      1 <1>         0.073300 
     17 N           0.542286    1.479540    0.893752 N.ar      1 <1>        -0.564000 
     18 C           1.532555    0.423393    0.986043 C.3       1 <1>         0.083100 
     19 O           2.518864    0.632571   -0.008446 O.3       1 <1>        -0.473100 
     20 C           3.609107   -0.280609    0.108065 C.3       1 <1>        -0.096900 
     21 C           4.665011    0.069883   -0.911770 C.ar      1 <1>         0.134600 
     22 C           5.058429    1.402100   -1.093362 C.ar      1 <1>        -0.159400 
     23 C           6.058773    1.722508   -2.009796 C.ar      1 <1>        -0.132600 
     24 C           6.684050    0.715274   -2.749738 C.ar      1 <1>        -0.126800 
     25 C           6.297966   -0.613397   -2.572866 C.ar      1 <1>        -0.129000 
     26 C           5.288768   -0.931940   -1.661492 C.ar      1 <1>        -0.183900 
     27 C           0.705981    2.543701    1.795115 C.ar      1 <1>         0.789300 
     28 O           1.580577    2.577780    2.645199 O.2       1 <1>        -0.515000 
     29 N          -0.226575    3.548590    1.649139 N.ar      1 <1>        -0.702900 
     30 C          -1.264903    3.634662    0.713688 C.ar      1 <1>         0.606800 
     31 O          -2.008603    4.606958    0.712130 O.2       1 <1>        -0.513100 
     32 H          -4.115877    3.989801   -3.014358 H         1 <1>         0.150600 
     33 H          -2.956563    4.121709   -4.345871 H         1 <1>         0.145100 
     34 H          -3.546740    2.530585   -3.840025 H         1 <1>         0.138900 
     35 H          -1.787247    4.411948   -2.141673 H         1 <1>         0.159600 
     36 H          -1.204994    2.972369   -2.969301 H         1 <1>         0.128900 
     37 H          -2.763564    1.566548   -1.543559 H         1 <1>         0.141400 
     38 H          -3.319998    3.035087   -0.754530 H         1 <1>         0.169200 
     39 H          -0.869299    0.652517   -2.015496 H         1 <1>         0.188900 
     40 H           0.625812    0.102978   -1.313443 H         1 <1>         0.203500 
     41 H          -2.087704   -0.039780    1.071652 H         1 <1>         0.137400 
     42 H          -3.246133   -2.092513    1.811211 H         1 <1>         0.136400 
     43 H          -2.969182   -4.208997    0.549919 H         1 <1>         0.133200 
     44 H          -1.991191   -5.443911   -1.323002 H         1 <1>         0.133700 
     45 H          -0.565532   -5.518429   -3.344863 H         1 <1>         0.134100 
     46 H           0.607294   -3.456474   -4.113515 H         1 <1>         0.134400 
     47 H           0.368021   -1.357620   -2.885093 H         1 <1>         0.138800 
     48 H           1.968705    0.481529    1.986630 H         1 <1>         0.189800 
     49 H           1.041907   -0.547740    0.852938 H         1 <1>         0.156500 
     50 H           3.262384   -1.315813   -0.039893 H         1 <1>         0.136200 
     51 H           4.022087   -0.218957    1.129258 H         1 <1>         0.150600 
     52 H           4.566258    2.183191   -0.521664 H         1 <1>         0.148000 
     53 H           6.352997    2.759852   -2.145749 H         1 <1>         0.133400 
     54 H           7.465574    0.966563   -3.461805 H         1 <1>         0.130900 
     55 H           6.774743   -1.402311   -3.148555 H         1 <1>         0.130400 
     56 H           4.983632   -1.968397   -1.533818 H         1 <1>         0.125300 
     57 H          -0.132604    4.325924    2.293215 H         1 <1>         0.353500 
@<TRIPOS>BOND
     1    9   42 1    
     2   27   28 2    
     3   18   48 1    
     4   20   51 1    
     5   10   43 1    
     6    9   10 ar   
     7    8    9 ar   
     8   27   29 ar   
     9   17   27 ar   
    10   18   49 1    
    11   29   57 1    
    12   17   18 1    
    13   18   19 1    
    14   11   10 ar   
    15    8   41 1    
    16   20   50 1    
    17    7    8 ar   
    18   30   29 ar   
    19   19   20 1    
    20   20   21 1    
    21    5   17 ar   
    22   12   44 1    
    23   11   12 ar   
    24   16   11 ar   
    25    7   16 ar   
    26    6    7 1    
    27   26   56 1    
    28   21   26 ar   
    29   21   22 ar   
    30   30   31 2    
    31    4   30 ar   
    32   12   13 ar   
    33    5    4 ar   
    34    5    6 1    
    35   22   52 1    
    36   16   15 ar   
    37   26   25 ar   
    38   22   23 ar   
    39    4    3 1    
    40    6   40 1    
    41    6   39 1    
    42   13   45 1    
    43   13   14 ar   
    44   25   55 1    
    45   25   24 ar   
    46   15   14 ar   
    47   15   47 1    
    48   23   24 ar   
    49   23   53 1    
    50    3   38 1    
    51   14   46 1    
    52    3   37 1    
    53    3    2 1    
    54   24   54 1    
    55    2   35 1    
    56    2   36 1    
    57    2    1 1    
    58    1   32 1    
    59    1   34 1    
    60    1   33 1    
@<TRIPOS>SUBSTRUCTURE
     1 ****       51 TEMP              0 ****  ****    0 ROOT 
