#	Name:			HYP-2005-CJCU-254-12
#	Creating user name:	Administrator
#	Creation time:		Sun Jul 05 16:45:42 2020

#	Modifying user name:	Administrator
#	Modification time:	Sun Jul 05 16:48:40 2020

@<TRIPOS>MOLECULE
HYP-2005-CJCU-254-12
   51    54     1     0     0
SMALL
MULLIKEN_CHARGES
INVALID_CHARGES
Gaussian 16 #p B3LYP/6-31G* opt
@<TRIPOS>ATOM
      1 C          -2.438507    2.555072   -1.244194 C.3       1 <1>        -0.542700 
      2 C          -1.346444    2.498163   -0.204403 C.ar      1 <1>         0.003500 
      3 C          -0.445199    1.481148   -0.102868 C.ar      1 <1>         0.336600 
      4 C          -0.433792    0.356960   -1.117162 C.3       1 <1>        -0.460400 
      5 C          -1.138483   -0.940085   -0.730675 C.ar      1 <1>         0.113500 
      6 C          -1.900484   -1.037123    0.415132 C.ar      1 <1>        -0.176300 
      7 C          -2.577811   -2.233435    0.753604 C.ar      1 <1>        -0.141900 
      8 C          -2.490100   -3.334466   -0.061945 C.ar      1 <1>        -0.188400 
      9 C          -1.723561   -3.285091   -1.257409 C.ar      1 <1>         0.134700 
     10 C          -1.625531   -4.411438   -2.116800 C.ar      1 <1>        -0.193500 
     11 C          -0.890881   -4.358111   -3.279428 C.ar      1 <1>        -0.132600 
     12 C          -0.220558   -3.164756   -3.632570 C.ar      1 <1>        -0.132700 
     13 C          -0.293362   -2.054377   -2.819028 C.ar      1 <1>        -0.201200 
     14 C          -1.038464   -2.073015   -1.607118 C.ar      1 <1>         0.074300 
     15 N           0.555226    1.480998    0.884588 N.ar      1 <1>        -0.570900 
     16 C           1.339730    0.304064    1.220868 C.3       1 <1>         0.095300 
     17 O           0.648210   -0.400072    2.234745 O.3       1 <1>        -0.467500 
     18 C           1.246783   -1.643383    2.583250 C.3       1 <1>        -0.097500 
     19 C           2.568212   -1.525990    3.322560 C.ar      1 <1>         0.103900 
     20 C           3.510728   -2.557062    3.232911 C.ar      1 <1>        -0.180700 
     21 C           4.702778   -2.495431    3.955679 C.ar      1 <1>        -0.129800 
     22 C           4.971161   -1.390363    4.765646 C.ar      1 <1>        -0.128300 
     23 C           4.041285   -0.351999    4.847892 C.ar      1 <1>        -0.133300 
     24 C           2.842782   -0.419453    4.135728 C.ar      1 <1>        -0.174500 
     25 C           0.702714    2.542763    1.793834 C.ar      1 <1>         0.798800 
     26 O           1.563263    2.568318    2.658310 O.2       1 <1>        -0.513200 
     27 N          -0.204521    3.566310    1.623000 N.ar      1 <1>        -0.701500 
     28 C          -1.266776    3.636823    0.714477 C.ar      1 <1>         0.599500 
     29 O          -2.018287    4.602068    0.724696 O.2       1 <1>        -0.509100 
     30 H          -3.146960    3.336909   -0.962931 H         1 <1>         0.198700 
     31 H          -2.979104    1.606906   -1.327191 H         1 <1>         0.164900 
     32 H          -2.049009    2.810365   -2.238937 H         1 <1>         0.162200 
     33 H          -0.894930    0.744686   -2.031603 H         1 <1>         0.189500 
     34 H           0.605422    0.147427   -1.395618 H         1 <1>         0.173300 
     35 H          -1.975797   -0.186814    1.084126 H         1 <1>         0.145500 
     36 H          -3.166024   -2.269819    1.666288 H         1 <1>         0.136900 
     37 H          -3.006497   -4.257121    0.191870 H         1 <1>         0.132600 
     38 H          -2.148566   -5.323026   -1.837416 H         1 <1>         0.133700 
     39 H          -0.826026   -5.227686   -3.927610 H         1 <1>         0.134000 
     40 H           0.354964   -3.122559   -4.553248 H         1 <1>         0.133100 
     41 H           0.225478   -1.149680   -3.119003 H         1 <1>         0.129500 
     42 H           1.466595   -0.326231    0.336231 H         1 <1>         0.146900 
     43 H           2.315680    0.644454    1.571776 H         1 <1>         0.189600 
     44 H           0.498879   -2.132790    3.217633 H         1 <1>         0.170000 
     45 H           1.369242   -2.271108    1.685513 H         1 <1>         0.136500 
     46 H           3.310634   -3.415732    2.594351 H         1 <1>         0.120800 
     47 H           5.424712   -3.304310    3.878201 H         1 <1>         0.128200 
     48 H           5.902287   -1.335934    5.323480 H         1 <1>         0.128600 
     49 H           4.248342    0.516744    5.467225 H         1 <1>         0.135000 
     50 H           2.129477    0.397591    4.184554 H         1 <1>         0.171900 
     51 H          -0.113763    4.339167    2.272834 H         1 <1>         0.354200 
@<TRIPOS>BOND
     1    7   36 1    
     2    8   37 1    
     3    7    8 ar   
     4    6    7 ar   
     5    9    8 ar   
     6   18   44 1    
     7    6   35 1    
     8    5    6 ar   
     9   10   38 1    
    10   17   18 1    
    11   18   19 1    
    12   18   45 1    
    13   24   50 1    
    14    9   10 ar   
    15   14    9 ar   
    16   16   17 1    
    17    1   31 1    
    18   19   24 ar   
    19   24   23 ar   
    20   28   29 2    
    21    1   30 1    
    22   10   11 ar   
    23   19   20 ar   
    24   27   51 1    
    25    5   14 ar   
    26    4    5 1    
    27   27   28 ar   
    28    2   28 ar   
    29   23   49 1    
    30   23   22 ar   
    31   25   27 ar   
    32    2    1 1    
    33    1   32 1    
    34   20   46 1    
    35   20   21 ar   
    36    3    2 ar   
    37   14   13 ar   
    38   25   26 2    
    39   15   25 ar   
    40   21   22 ar   
    41   22   48 1    
    42   15    3 ar   
    43    3    4 1    
    44   21   47 1    
    45   15   16 1    
    46   16   42 1    
    47   16   43 1    
    48    4   33 1    
    49    4   34 1    
    50   11   39 1    
    51   11   12 ar   
    52   13   12 ar   
    53   13   41 1    
    54   12   40 1    
@<TRIPOS>SUBSTRUCTURE
     1 ****       31 TEMP              0 ****  ****    0 ROOT 
