#	Name:			HYP-2005-CJCU-254-16
#	Creating user name:	Administrator
#	Creation time:		Sun Jul 05 16:45:42 2020

#	Modifying user name:	Administrator
#	Modification time:	Sun Jul 05 16:48:40 2020

@<TRIPOS>MOLECULE
HYP-2005-CJCU-254-16
   42    44     1     0     0
SMALL
MULLIKEN_CHARGES
INVALID_CHARGES
Gaussian 16 #p B3LYP/6-31G* opt
@<TRIPOS>ATOM
      1 C          -2.436613    2.554279   -1.240681 C.3       1 <1>        -0.550700 
      2 C          -1.345568    2.498664   -0.201159 C.ar      1 <1>         0.019800 
      3 C          -0.451119    1.473168   -0.097770 C.ar      1 <1>         0.345000 
      4 C          -0.523617    0.318922   -1.085289 C.3       1 <1>        -0.461900 
      5 C          -1.562542   -0.753269   -0.768983 C.ar      1 <1>         0.183300 
      6 C          -1.629234   -1.367707    0.512861 C.ar      1 <1>        -0.198400 
      7 C          -2.547411   -2.360403    0.766007 C.ar      1 <1>        -0.201600 
      8 C          -3.453687   -2.803282   -0.233876 C.ar      1 <1>         0.139600 
      9 C          -4.411617   -3.825721   -0.000825 C.ar      1 <1>        -0.191200 
     10 C          -5.271939   -4.225190   -0.998777 C.ar      1 <1>        -0.134100 
     11 C          -5.213407   -3.618394   -2.277806 C.ar      1 <1>        -0.136200 
     12 C          -4.296395   -2.623956   -2.534460 C.ar      1 <1>        -0.190200 
     13 C          -3.394323   -2.189992   -1.526112 C.ar      1 <1>         0.143800 
     14 C          -2.436885   -1.166159   -1.754755 C.ar      1 <1>        -0.274100 
     15 N           0.567766    1.486208    0.875004 N.ar      1 <1>        -0.572100 
     16 C           1.462607    0.359931    1.160364 C.3       1 <1>         0.066700 
     17 O           0.992015   -0.302164    2.315560 O.3       1 <1>        -0.480500 
     18 C           1.988767   -0.693128    3.271073 C.3       1 <1>         0.175000 
     19 O           2.950434    0.280257    3.503784 O.3       1 <1>        -0.621200 
     20 C           0.696075    2.539498    1.786957 C.ar      1 <1>         0.816000 
     21 O           1.563520    2.579455    2.655744 O.2       1 <1>        -0.547600 
     22 N          -0.218499    3.550900    1.639836 N.ar      1 <1>        -0.700400 
     23 C          -1.266731    3.637279    0.712811 C.ar      1 <1>         0.598400 
     24 O          -2.005468    4.611418    0.720210 O.2       1 <1>        -0.507200 
     25 H          -2.031295    2.679059   -2.254086 H         1 <1>         0.157500 
     26 H          -3.074518    3.414845   -1.031248 H         1 <1>         0.199800 
     27 H          -3.053432    1.650209   -1.238667 H         1 <1>         0.175000 
     28 H           0.458312   -0.144075   -1.218514 H         1 <1>         0.175700 
     29 H          -0.767008    0.751305   -2.060185 H         1 <1>         0.179200 
     30 H          -0.949293   -1.057423    1.300721 H         1 <1>         0.171500 
     31 H          -2.587780   -2.822143    1.749907 H         1 <1>         0.135100 
     32 H          -4.454177   -4.288819    0.982321 H         1 <1>         0.132900 
     33 H          -6.000735   -5.008402   -0.809142 H         1 <1>         0.133000 
     34 H          -5.897824   -3.941989   -3.057247 H         1 <1>         0.133000 
     35 H          -4.250726   -2.156499   -3.515431 H         1 <1>         0.130600 
     36 H          -2.399998   -0.705922   -2.740541 H         1 <1>         0.126000 
     37 H           1.470824   -0.317002    0.307728 H         1 <1>         0.157400 
     38 H           2.464712    0.753884    1.328753 H         1 <1>         0.201000 
     39 H           2.526208   -1.587507    2.929219 H         1 <1>         0.139200 
     40 H           1.391869   -0.939925    4.159197 H         1 <1>         0.140700 
     41 H           2.489817    1.142214    3.574603 H         1 <1>         0.435500 
     42 H          -0.128790    4.319208    2.295441 H         1 <1>         0.356800 
@<TRIPOS>BOND
     1    9   32 1    
     2    7   31 1    
     3   10   33 1    
     4   22   42 1    
     5   23   24 2    
     6   18   40 1    
     7    9   10 ar   
     8    8    9 ar   
     9   11   10 ar   
    10    7    8 ar   
    11    6    7 ar   
    12   23   22 ar   
    13   20   22 ar   
    14    2   23 ar   
    15   13    8 ar   
    16    1   26 1    
    17    6   30 1    
    18   20   21 2    
    19   19   41 1    
    20   15   20 ar   
    21    5    6 ar   
    22   17   18 1    
    23   18   19 1    
    24   18   39 1    
    25   16   17 1    
    26    1   27 1    
    27   11   34 1    
    28   12   11 ar   
    29    2    1 1    
    30    3    2 ar   
    31    1   25 1    
    32   13   12 ar   
    33   14   13 ar   
    34    3   15 ar   
    35   15   16 1    
    36    4    3 1    
    37   12   35 1    
    38    5   14 ar   
    39    5    4 1    
    40   16   38 1    
    41   16   37 1    
    42   14   36 1    
    43    4   29 1    
    44    4   28 1    
@<TRIPOS>SUBSTRUCTURE
     1 ****       31 TEMP              0 ****  ****    0 ROOT 
