#	Name:			HYP-2005-CJCU-254-5
#	Creating user name:	Administrator
#	Creation time:		Sun Jul 05 16:45:43 2020

#	Modifying user name:	Administrator
#	Modification time:	Sun Jul 05 16:48:40 2020

@<TRIPOS>MOLECULE
HYP-2005-CJCU-254-5
   41    43     1     0     0
SMALL
MULLIKEN_CHARGES
INVALID_CHARGES
Gaussian 16 #p B3LYP/6-31G* opt
@<TRIPOS>ATOM
      1 C           1.722938   -1.718112    2.030786 C.3       1 <1>        -0.206700 
      2 O           0.839210   -0.654495    1.715557 O.3       1 <1>        -0.457100 
      3 C           1.494090    0.391017    1.022300 C.3       1 <1>         0.078000 
      4 N           0.572351    1.499920    0.863636 N.ar      1 <1>        -0.560500 
      5 C          -0.458404    1.473118   -0.087596 C.ar      1 <1>         0.328200 
      6 C          -0.534139    0.249990   -0.972905 C.3       1 <1>        -0.460500 
      7 C           0.375293    0.255162   -2.199848 C.ar      1 <1>         0.111500 
      8 C           1.071762    1.383451   -2.584158 C.ar      1 <1>        -0.199900 
      9 C           1.902600    1.388546   -3.730810 C.ar      1 <1>        -0.135400 
     10 C           2.032726    0.256428   -4.496090 C.ar      1 <1>        -0.188200 
     11 C           1.332325   -0.930602   -4.149679 C.ar      1 <1>         0.136300 
     12 C           1.449083   -2.109823   -4.932496 C.ar      1 <1>        -0.193500 
     13 C           0.763495   -3.255661   -4.599115 C.ar      1 <1>        -0.131800 
     14 C          -0.073706   -3.268128   -3.460067 C.ar      1 <1>        -0.133500 
     15 C          -0.206741   -2.141360   -2.677382 C.ar      1 <1>        -0.199500 
     16 C           0.488294   -0.939870   -2.988656 C.ar      1 <1>         0.073600 
     17 C          -1.349924    2.496213   -0.204639 C.ar      1 <1>         0.007100 
     18 C          -2.457736    2.531829   -1.228548 C.3       1 <1>        -0.542800 
     19 C          -1.265292    3.637249    0.709887 C.ar      1 <1>         0.598000 
     20 O          -2.006022    4.610911    0.711794 O.2       1 <1>        -0.510100 
     21 N          -0.224801    3.548820    1.644121 N.ar      1 <1>        -0.701500 
     22 C           0.703451    2.540945    1.797470 C.ar      1 <1>         0.789500 
     23 O           1.568618    2.569415    2.656961 O.2       1 <1>        -0.514100 
     24 H           2.149055   -2.177850    1.125356 H         1 <1>         0.139700 
     25 H           2.547611   -1.377420    2.674256 H         1 <1>         0.149500 
     26 H           1.135766   -2.466186    2.567666 H         1 <1>         0.169200 
     27 H           1.832488    0.054719    0.034726 H         1 <1>         0.154700 
     28 H           2.346260    0.766282    1.595038 H         1 <1>         0.189500 
     29 H          -1.572859    0.142366   -1.302951 H         1 <1>         0.185800 
     30 H          -0.327870   -0.630431   -0.356268 H         1 <1>         0.200300 
     31 H           0.981936    2.294318   -1.999718 H         1 <1>         0.138200 
     32 H           2.434452    2.297559   -3.997441 H         1 <1>         0.136800 
     33 H           2.668915    0.251339   -5.377786 H         1 <1>         0.133500 
     34 H           2.093494   -2.088687   -5.808255 H         1 <1>         0.134000 
     35 H           0.861647   -4.149858   -5.208433 H         1 <1>         0.134400 
     36 H          -0.616915   -4.172775   -3.200970 H         1 <1>         0.133700 
     37 H          -0.859271   -2.176082   -1.811106 H         1 <1>         0.135600 
     38 H          -2.094430    2.310666   -2.237421 H         1 <1>         0.163300 
     39 H          -2.901069    3.529644   -1.229321 H         1 <1>         0.197600 
     40 H          -3.257415    1.816580   -0.994802 H         1 <1>         0.163200 
     41 H          -0.143913    4.316200    2.301622 H         1 <1>         0.354100 
@<TRIPOS>BOND
     1   18   40 1    
     2   14   36 1    
     3   15   37 1    
     4    6   29 1    
     5   18   39 1    
     6   18   38 1    
     7   17   18 1    
     8   15   14 ar   
     9   14   13 ar   
    10   16   15 ar   
    11    6   30 1    
    12    1   26 1    
    13    5    6 1    
    14    6    7 1    
    15   13   35 1    
    16    5   17 ar   
    17   17   19 ar   
    18   13   12 ar   
    19   19   20 2    
    20    2    1 1    
    21    3    2 1    
    22    4    5 ar   
    23   19   21 ar   
    24    1   24 1    
    25    1   25 1    
    26    7   16 ar   
    27   16   11 ar   
    28    7    8 ar   
    29    4    3 1    
    30    4   22 ar   
    31   21   41 1    
    32   21   22 ar   
    33   12   11 ar   
    34   12   34 1    
    35    3   27 1    
    36    3   28 1    
    37   22   23 2    
    38   11   10 ar   
    39    8   31 1    
    40    8    9 ar   
    41   10    9 ar   
    42   10   33 1    
    43    9   32 1    
@<TRIPOS>SUBSTRUCTURE
     1 ****       36 TEMP              0 ****  ****    0 ROOT 
