#	Name:			HYP-2005-CJCU-254-1
#	Creating user name:	Administrator
#	Creation time:		Sun Jul 05 16:45:42 2020

#	Modifying user name:	Administrator
#	Modification time:	Sun Jul 05 16:48:40 2020

@<TRIPOS>MOLECULE
HYP-2005-CJCU-254-1
   45    47     1     0     0
SMALL
MULLIKEN_CHARGES
INVALID_CHARGES
Gaussian 16 #p B3LYP/6-31G* opt
@<TRIPOS>ATOM
      1 C          -2.501923    2.534609   -1.181070 C.3       1 <1>        -0.550700 
      2 C          -1.356835    2.490306   -0.195338 C.ar      1 <1>        -0.007300 
      3 C          -0.449384    1.473010   -0.101087 C.ar      1 <1>         0.351300 
      4 C          -0.582555    0.235159   -0.978173 C.3       1 <1>        -0.437800 
      5 C           0.563080   -0.237594   -1.873773 C.ar      1 <1>         0.087900 
      6 C           0.929595   -1.570378   -1.793695 C.ar      1 <1>        -0.222100 
      7 C           1.919945   -2.123112   -2.638125 C.ar      1 <1>        -0.134900 
      8 C           2.548242   -1.334628   -3.571047 C.ar      1 <1>        -0.189800 
      9 C           2.205073    0.036724   -3.702468 C.ar      1 <1>         0.142100 
     10 C           2.837574    0.858471   -4.673689 C.ar      1 <1>        -0.195400 
     11 C           2.496025    2.183232   -4.816441 C.ar      1 <1>        -0.130500 
     12 C           1.499360    2.744314   -3.985402 C.ar      1 <1>        -0.142000 
     13 C           0.868805    1.976540   -3.030832 C.ar      1 <1>        -0.194500 
     14 C           1.194842    0.603314   -2.850307 C.ar      1 <1>         0.083100 
     15 N           0.568454    1.494016    0.866121 N.ar      1 <1>        -0.580100 
     16 C           1.466218    0.373040    1.075677 C.3       1 <1>         0.083100 
     17 O           0.745407   -0.690506    1.680676 O.3       1 <1>        -0.498800 
     18 C           1.571224   -1.823149    1.940330 C.3       1 <1>        -0.033200 
     19 C           0.652046   -2.958001    2.364650 C.3       1 <1>        -0.056400 
     20 O          -0.304607   -3.265233    1.358873 O.3       1 <1>        -0.613800 
     21 C           0.701814    2.543787    1.794803 C.ar      1 <1>         0.787800 
     22 O           1.557785    2.569031    2.663681 O.2       1 <1>        -0.512000 
     23 N          -0.211741    3.560387    1.631402 N.ar      1 <1>        -0.698700 
     24 C          -1.263022    3.637274    0.712669 C.ar      1 <1>         0.600400 
     25 O          -2.007094    4.608780    0.719383 O.2       1 <1>        -0.510800 
     26 H          -2.168670    2.458205   -2.222643 H         1 <1>         0.162600 
     27 H          -3.019882    3.487941   -1.061154 H         1 <1>         0.202700 
     28 H          -3.230631    1.733670   -1.006325 H         1 <1>         0.163300 
     29 H          -0.830015   -0.595961   -0.309867 H         1 <1>         0.180300 
     30 H          -1.462155    0.391835   -1.606782 H         1 <1>         0.186000 
     31 H           0.453887   -2.213501   -1.056893 H         1 <1>         0.151700 
     32 H           2.176242   -3.174389   -2.540960 H         1 <1>         0.137800 
     33 H           3.311657   -1.748295   -4.225556 H         1 <1>         0.134000 
     34 H           3.600566    0.414481   -5.308752 H         1 <1>         0.133600 
     35 H           2.987342    2.798985   -5.564716 H         1 <1>         0.135100 
     36 H           1.228832    3.790529   -4.099235 H         1 <1>         0.136800 
     37 H           0.117988    2.433260   -2.398203 H         1 <1>         0.144600 
     38 H           1.888305    0.050849    0.121079 H         1 <1>         0.170300 
     39 H           2.259625    0.728443    1.736266 H         1 <1>         0.193700 
     40 H           2.121187   -2.108468    1.031048 H         1 <1>         0.141700 
     41 H           2.302572   -1.595996    2.732420 H         1 <1>         0.136800 
     42 H           0.159033   -2.697378    3.313237 H         1 <1>         0.143100 
     43 H           1.241107   -3.866008    2.526972 H         1 <1>         0.154500 
     44 H          -0.843982   -2.465448    1.254421 H         1 <1>         0.409100 
     45 H          -0.125268    4.330905    2.284457 H         1 <1>         0.355400 
@<TRIPOS>BOND
     1   21   22 2    
     2   16   39 1    
     3   18   41 1    
     4   21   23 ar   
     5   15   21 ar   
     6   23   45 1    
     7   11   35 1    
     8   10   34 1    
     9   16   38 1    
    10   15   16 1    
    11   16   17 1    
    12   18   40 1    
    13   10   11 ar   
    14   12   11 ar   
    15   24   23 ar   
    16    9   10 ar   
    17   17   18 1    
    18   18   19 1    
    19    3   15 ar   
    20    8   33 1    
    21   12   36 1    
    22   13   12 ar   
    23    9    8 ar   
    24   14    9 ar   
    25    7    8 ar   
    26   19   43 1    
    27   14   13 ar   
    28   13   37 1    
    29    5   14 ar   
    30   19   42 1    
    31   19   20 1    
    32    7   32 1    
    33    6    7 ar   
    34   24   25 2    
    35    2   24 ar   
    36    3    2 ar   
    37    4    3 1    
    38    5    6 ar   
    39    5    4 1    
    40    6   31 1    
    41    2    1 1    
    42    4   29 1    
    43    4   30 1    
    44   20   44 1    
    45    1   26 1    
    46    1   27 1    
    47    1   28 1    
@<TRIPOS>SUBSTRUCTURE
     1 ****       35 TEMP              0 ****  ****    0 ROOT 
