#	Name:			HYP-2005-CJCU-254-2
#	Creating user name:	Administrator
#	Creation time:		Sun Jul 05 16:45:42 2020

#	Modifying user name:	Administrator
#	Modification time:	Sun Jul 05 16:48:40 2020

@<TRIPOS>MOLECULE
HYP-2005-CJCU-254-2
   48    50     1     0     0
SMALL
MULLIKEN_CHARGES
INVALID_CHARGES
Gaussian 16 #p B3LYP/6-31G* opt
@<TRIPOS>ATOM
      1 C          -3.846169    2.094068   -0.488066 C.3       1 <1>        -0.447700 
      2 C          -2.526618    2.530224   -1.152275 C.3       1 <1>        -0.337400 
      3 C          -1.355227    2.493181   -0.197940 C.ar      1 <1>         0.005100 
      4 C          -0.457013    1.472945   -0.103319 C.ar      1 <1>         0.326000 
      5 C          -0.542376    0.242047   -1.000668 C.3       1 <1>        -0.457800 
      6 C          -0.334531    0.394712   -2.509225 C.ar      1 <1>         0.128700 
      7 C          -1.257782   -0.224191   -3.333928 C.ar      1 <1>        -0.208200 
      8 C          -1.127858   -0.234483   -4.740850 C.ar      1 <1>        -0.128000 
      9 C          -0.055504    0.384827   -5.333172 C.ar      1 <1>        -0.191200 
     10 C           0.925028    1.036590   -4.540102 C.ar      1 <1>         0.142700 
     11 C           2.041119    1.673037   -5.146777 C.ar      1 <1>        -0.194400 
     12 C           3.001979    2.301816   -4.390237 C.ar      1 <1>        -0.131000 
     13 C           2.879466    2.322532   -2.982351 C.ar      1 <1>        -0.142600 
     14 C           1.808248    1.716743   -2.362918 C.ar      1 <1>        -0.194800 
     15 C           0.795038    1.049798   -3.107178 C.ar      1 <1>         0.076600 
     16 N           0.568557    1.495030    0.867337 N.ar      1 <1>        -0.575000 
     17 C           1.459161    0.369563    1.090096 C.3       1 <1>         0.076000 
     18 O           0.723994   -0.688728    1.673530 O.3       1 <1>        -0.477600 
     19 C           1.547947   -1.778705    2.065025 C.3       1 <1>        -0.036800 
     20 C           0.655463   -2.829427    2.722094 C.3       1 <1>        -0.053200 
     21 O           1.409886   -3.950537    3.157123 O.3       1 <1>        -0.608400 
     22 C           0.702564    2.544787    1.796905 C.ar      1 <1>         0.788700 
     23 O           1.558069    2.567704    2.667239 O.2       1 <1>        -0.514800 
     24 N          -0.205421    3.564437    1.629184 N.ar      1 <1>        -0.699700 
     25 C          -1.260287    3.636153    0.712192 C.ar      1 <1>         0.607000 
     26 O          -2.011265    4.602353    0.720035 O.2       1 <1>        -0.511000 
     27 H          -4.674073    2.155913   -1.203643 H         1 <1>         0.145600 
     28 H          -4.081834    2.744153    0.359734 H         1 <1>         0.172500 
     29 H          -3.791964    1.061488   -0.122171 H         1 <1>         0.135700 
     30 H          -2.329206    1.915729   -2.032339 H         1 <1>         0.152400 
     31 H          -2.638454    3.562293   -1.500490 H         1 <1>         0.171700 
     32 H          -1.547153   -0.169762   -0.858112 H         1 <1>         0.183900 
     33 H           0.122090   -0.536929   -0.624855 H         1 <1>         0.193600 
     34 H          -2.113828   -0.723854   -2.886400 H         1 <1>         0.128800 
     35 H          -1.881688   -0.732892   -5.343909 H         1 <1>         0.135100 
     36 H           0.059878    0.386095   -6.414302 H         1 <1>         0.134200 
     37 H           2.120250    1.652022   -6.231056 H         1 <1>         0.133700 
     38 H           3.849780    2.784280   -4.868601 H         1 <1>         0.135200 
     39 H           3.633194    2.825550   -2.382693 H         1 <1>         0.135700 
     40 H           1.734921    1.770028   -1.284860 H         1 <1>         0.140900 
     41 H           1.911033    0.051397    0.141468 H         1 <1>         0.143000 
     42 H           2.243621    0.721657    1.763267 H         1 <1>         0.201100 
     43 H           2.321586   -1.451342    2.775233 H         1 <1>         0.152200 
     44 H           2.061459   -2.212799    1.188119 H         1 <1>         0.113400 
     45 H          -0.151073   -3.113041    2.029546 H         1 <1>         0.134500 
     46 H           0.190196   -2.403070    3.615085 H         1 <1>         0.169500 
     47 H           1.693002   -4.443630    2.371706 H         1 <1>         0.391800 
     48 H          -0.121700    4.333583    2.284383 H         1 <1>         0.354300 
@<TRIPOS>BOND
     1    1   27 1    
     2    1   29 1    
     3    8   35 1    
     4    7   34 1    
     5    1   28 1    
     6    2    1 1    
     7    7    8 ar   
     8    8    9 ar   
     9    6    7 ar   
    10    5   32 1    
    11   20   45 1    
    12    2   30 1    
    13    2   31 1    
    14    3    2 1    
    15   20   46 1    
    16    9   36 1    
    17   10    9 ar   
    18   20   21 1    
    19   19   20 1    
    20   21   47 1    
    21    5    6 1    
    22    5   33 1    
    23    4    5 1    
    24    6   15 ar   
    25    4    3 ar   
    26    3   25 ar   
    27   16    4 ar   
    28   18   19 1    
    29   17   18 1    
    30   25   26 2    
    31   19   44 1    
    32   19   43 1    
    33   15   10 ar   
    34   10   11 ar   
    35   15   14 ar   
    36   25   24 ar   
    37   16   17 1    
    38   16   22 ar   
    39   17   41 1    
    40   17   42 1    
    41   24   22 ar   
    42   24   48 1    
    43   11   37 1    
    44   11   12 ar   
    45   22   23 2    
    46   14   40 1    
    47   14   13 ar   
    48   12   13 ar   
    49   12   38 1    
    50   13   39 1    
@<TRIPOS>SUBSTRUCTURE
     1 ****       27 TEMP              0 ****  ****    0 ROOT 
