#	Name:			HYP2005-MC-1233-4-16
#	Creating user name:	Administrator
#	Creation time:		Sun Jul 05 16:45:43 2020

#	Modifying user name:	Administrator
#	Modification time:	Sun Jul 05 16:48:40 2020

@<TRIPOS>MOLECULE
HYP2005-MC-1233-4-16
   52    55     1     0     0
SMALL
MULLIKEN_CHARGES
INVALID_CHARGES
Gaussian 16 #p B3LYP/6-31G* opt
@<TRIPOS>ATOM
      1 C          -2.302169    3.695273   -2.281061 C.3       1 <1>        -0.454900 
      2 C          -2.494115    2.619747   -1.195952 C.3       1 <1>        -0.329100 
      3 C          -1.337449    2.504102   -0.224501 C.ar      1 <1>        -0.009100 
      4 C          -0.437255    1.480708   -0.123928 C.ar      1 <1>         0.353100 
      5 C          -0.370238    0.231610   -1.007146 C.3       1 <1>        -0.477400 
      6 C          -0.891989    0.234311   -2.433876 C.ar      1 <1>         0.119100 
      7 C          -1.962248   -0.576219   -2.761366 C.ar      1 <1>        -0.205400 
      8 C          -2.439575   -0.679374   -4.088210 C.ar      1 <1>        -0.129600 
      9 C          -1.826469    0.026653   -5.094997 C.ar      1 <1>        -0.189000 
     10 C          -0.704322    0.852214   -4.818019 C.ar      1 <1>         0.144300 
     11 C          -0.044850    1.568795   -5.852253 C.ar      1 <1>        -0.196300 
     12 C           1.055396    2.349814   -5.582783 C.ar      1 <1>        -0.129200 
     13 C           1.546391    2.444363   -4.259663 C.ar      1 <1>        -0.145000 
     14 C           0.927477    1.769512   -3.229762 C.ar      1 <1>        -0.208300 
     15 C          -0.216734    0.958060   -3.471103 C.ar      1 <1>         0.078400 
     16 N           0.516396    1.473307    0.920823 N.ar      1 <1>        -0.552900 
     17 C           1.431734    0.370000    1.191927 C.3       1 <1>        -0.276800 
     18 C           2.758867    0.495366    0.414365 C.2       1 <1>         0.436100 
     19 O           2.875319    1.344918   -0.450951 O.2       1 <1>        -0.443800 
     20 C           3.845964   -0.464691    0.756794 C.ar      1 <1>         0.014000 
     21 C           3.706233   -1.410152    1.792550 C.ar      1 <1>        -0.187200 
     22 C           4.710164   -2.314402    2.115669 C.ar      1 <1>        -0.200500 
     23 C           5.892739   -2.274150    1.382092 C.ar      1 <1>         0.408400 
     24 F           6.874786   -3.137869    1.678412 F         1 <1>        -0.280500 
     25 C           6.091804   -1.367299    0.349682 C.ar      1 <1>        -0.278300 
     26 C           5.067580   -0.476711    0.052084 C.ar      1 <1>         0.365300 
     27 F           5.285323    0.379077   -0.948468 F         1 <1>        -0.254200 
     28 C           0.701956    2.553116    1.791079 C.ar      1 <1>         0.794200 
     29 O           1.571252    2.569723    2.652260 O.2       1 <1>        -0.529800 
     30 N          -0.191354    3.580232    1.616602 N.ar      1 <1>        -0.699000 
     31 C          -1.255727    3.632815    0.713591 C.ar      1 <1>         0.604200 
     32 O          -2.027842    4.582588    0.745708 O.2       1 <1>        -0.511600 
     33 H          -1.434422    3.479045   -2.910591 H         1 <1>         0.156900 
     34 H          -2.167771    4.678942   -1.823883 H         1 <1>         0.171800 
     35 H          -3.187523    3.737911   -2.925796 H         1 <1>         0.138100 
     36 H          -3.373821    2.892715   -0.600540 H         1 <1>         0.160400 
     37 H          -2.708131    1.658733   -1.659739 H         1 <1>         0.151000 
     38 H          -0.874977   -0.581296   -0.466146 H         1 <1>         0.174200 
     39 H           0.681348   -0.059858   -1.071208 H         1 <1>         0.182100 
     40 H          -2.459552   -1.143364   -1.977442 H         1 <1>         0.125100 
     41 H          -3.290600   -1.319805   -4.302670 H         1 <1>         0.132400 
     42 H          -2.184891   -0.043168   -6.119166 H         1 <1>         0.132100 
     43 H          -0.426857    1.484428   -6.866980 H         1 <1>         0.130600 
     44 H           1.551415    2.891305   -6.383686 H         1 <1>         0.132300 
     45 H           2.421116    3.053876   -4.050999 H         1 <1>         0.140000 
     46 H           1.328677    1.859986   -2.226200 H         1 <1>         0.182000 
     47 H           1.644453    0.406068    2.261634 H         1 <1>         0.221900 
     48 H           0.954412   -0.588529    0.977596 H         1 <1>         0.188600 
     49 H           2.789324   -1.439477    2.369805 H         1 <1>         0.159400 
     50 H           4.595115   -3.035521    2.916814 H         1 <1>         0.163000 
     51 H           7.017350   -1.347683   -0.213214 H         1 <1>         0.176000 
     52 H          -0.097010    4.361725    2.255085 H         1 <1>         0.352900 
@<TRIPOS>BOND
     1    8   41 1    
     2    7   40 1    
     3    7    8 ar   
     4    8    9 ar   
     5    6    7 ar   
     6    5   38 1    
     7   22   50 1    
     8   21   49 1    
     9   17   48 1    
    10    2   37 1    
    11    5    6 1    
    12    5   39 1    
    13    4    5 1    
    14   21   22 ar   
    15   22   23 ar   
    16    9   42 1    
    17   10    9 ar   
    18    6   15 ar   
    19   20   21 ar   
    20    2   36 1    
    21   17   47 1    
    22   17   16 1    
    23   18   17 1    
    24   23   24 1    
    25   16    4 ar   
    26    4    3 ar   
    27    3    2 1    
    28    2    1 1    
    29   23   25 ar   
    30   16   28 ar   
    31    3   31 ar   
    32   15   10 ar   
    33   10   11 ar   
    34   15   14 ar   
    35   20   18 1    
    36   20   26 ar   
    37   18   19 2    
    38    1   35 1    
    39   28   29 2    
    40   28   30 ar   
    41   31   32 2    
    42   31   30 ar   
    43   25   26 ar   
    44   25   51 1    
    45    1   33 1    
    46    1   34 1    
    47   30   52 1    
    48   26   27 1    
    49   11   43 1    
    50   11   12 ar   
    51   14   46 1    
    52   14   13 ar   
    53   12   13 ar   
    54   12   44 1    
    55   13   45 1    
@<TRIPOS>SUBSTRUCTURE
     1 ****       50 TEMP              0 ****  ****    0 ROOT 
