#	Name:			HYP2005-MC-1233-5-1
#	Creating user name:	Administrator
#	Creation time:		Sun Jul 05 16:45:45 2020

#	Modifying user name:	Administrator
#	Modification time:	Sun Jul 05 16:48:40 2020

@<TRIPOS>MOLECULE
HYP2005-MC-1233-5-1
   46    48     1     0     0
SMALL
MULLIKEN_CHARGES
INVALID_CHARGES
Gaussian 16 #p B3LYP/6-31G* opt
@<TRIPOS>ATOM
      1 C          -1.001060   -2.826616    2.746551 C.3       1 <1>        -0.465900 
      2 C          -0.500178   -1.559496    3.421259 C.3       1 <1>        -0.048700 
      3 O          -0.077833   -0.571346    2.443666 O.3       1 <1>        -0.455400 
      4 C           1.190306   -0.667035    2.005081 C.2       1 <1>         0.645800 
      5 O           1.977506   -1.528460    2.325524 O.2       1 <1>        -0.469400 
      6 C           1.558081    0.436128    1.014268 C.3       1 <1>        -0.280900 
      7 N           0.580452    1.509106    0.857849 N.ar      1 <1>        -0.531600 
      8 C          -0.456921    1.470493   -0.080085 C.ar      1 <1>         0.331900 
      9 C          -0.547699    0.241587   -0.955058 C.3       1 <1>        -0.451500 
     10 C           0.389048    0.203148   -2.160488 C.ar      1 <1>         0.104300 
     11 C           1.129293    1.306261   -2.536401 C.ar      1 <1>        -0.197500 
     12 C           1.984739    1.276025   -3.664301 C.ar      1 <1>        -0.135400 
     13 C           2.094933    0.133962   -4.417889 C.ar      1 <1>        -0.186100 
     14 C           1.348607   -1.027197   -4.079684 C.ar      1 <1>         0.136400 
     15 C           1.444375   -2.214836   -4.852228 C.ar      1 <1>        -0.192500 
     16 C           0.713419   -3.335038   -4.528090 C.ar      1 <1>        -0.131000 
     17 C          -0.150552   -3.311357   -3.409605 C.ar      1 <1>        -0.131700 
     18 C          -0.264173   -2.175645   -2.637050 C.ar      1 <1>        -0.197800 
     19 C           0.478455   -1.000557   -2.938551 C.ar      1 <1>         0.078100 
     20 C          -1.351984    2.492577   -0.197753 C.ar      1 <1>         0.003100 
     21 C          -2.467710    2.521543   -1.213642 C.3       1 <1>        -0.543600 
     22 C          -1.265137    3.639003    0.708927 C.ar      1 <1>         0.597200 
     23 O          -2.008495    4.611233    0.709575 O.2       1 <1>        -0.512200 
     24 N          -0.222598    3.554664    1.641004 N.ar      1 <1>        -0.702600 
     25 C           0.702125    2.544067    1.792772 C.ar      1 <1>         0.786400 
     26 O           1.562536    2.555449    2.659345 O.2       1 <1>        -0.518500 
     27 H          -0.191217   -3.319951    2.201636 H         1 <1>         0.178800 
     28 H          -1.817420   -2.603296    2.051333 H         1 <1>         0.154700 
     29 H          -1.378547   -3.523341    3.503603 H         1 <1>         0.157700 
     30 H           0.340126   -1.768135    4.087125 H         1 <1>         0.179800 
     31 H          -1.293499   -1.058216    3.980061 H         1 <1>         0.161800 
     32 H           2.484109    0.880846    1.380512 H         1 <1>         0.233600 
     33 H           1.772570   -0.020806    0.046898 H         1 <1>         0.208600 
     34 H          -1.581294    0.159725   -1.306300 H         1 <1>         0.189700 
     35 H          -0.387840   -0.643924   -0.330055 H         1 <1>         0.175000 
     36 H           1.055946    2.224054   -1.960565 H         1 <1>         0.140700 
     37 H           2.552017    2.165044   -3.925131 H         1 <1>         0.138600 
     38 H           2.750772    0.101233   -5.284347 H         1 <1>         0.135400 
     39 H           2.109867   -2.221412   -5.712265 H         1 <1>         0.135600 
     40 H           0.796483   -4.236424   -5.128699 H         1 <1>         0.136000 
     41 H          -0.729430   -4.195798   -3.157797 H         1 <1>         0.134600 
     42 H          -0.938976   -2.183186   -1.787382 H         1 <1>         0.131300 
     43 H          -2.911953    3.518914   -1.213879 H         1 <1>         0.198900 
     44 H          -3.265641    1.806715   -0.972412 H         1 <1>         0.161300 
     45 H          -2.112266    2.298947   -2.225172 H         1 <1>         0.162800 
     46 H          -0.144895    4.319169    2.302088 H         1 <1>         0.354100 
@<TRIPOS>BOND
     1    6   32 1    
     2   12   37 1    
     3   25   26 2    
     4   13   38 1    
     5    4    5 2    
     6   12   13 ar   
     7   11   12 ar   
     8    6   33 1    
     9    6    4 1    
    10    7    6 1    
    11   14   13 ar   
    12    7   25 ar   
    13   25   24 ar   
    14   11   36 1    
    15    4    3 1    
    16   15   39 1    
    17   10   11 ar   
    18    8    7 ar   
    19   24   46 1    
    20   14   15 ar   
    21   19   14 ar   
    22   24   22 ar   
    23   15   16 ar   
    24    2   30 1    
    25   10   19 ar   
    26    9   10 1    
    27    3    2 1    
    28   19   18 ar   
    29    8    9 1    
    30    8   20 ar   
    31   16   40 1    
    32   16   17 ar   
    33    2   31 1    
    34    2    1 1    
    35    9   35 1    
    36   22   20 ar   
    37   22   23 2    
    38    1   27 1    
    39    9   34 1    
    40   18   17 ar   
    41   18   42 1    
    42   20   21 1    
    43   17   41 1    
    44    1   29 1    
    45    1   28 1    
    46   21   45 1    
    47   21   43 1    
    48   21   44 1    
@<TRIPOS>SUBSTRUCTURE
     1 ****       26 TEMP              0 ****  ****    0 ROOT 
