#	Name:			HYP2005-MC-1233-4-34
#	Creating user name:	Administrator
#	Creation time:		Sun Jul 05 16:45:44 2020

#	Modifying user name:	Administrator
#	Modification time:	Sun Jul 05 16:48:40 2020

@<TRIPOS>MOLECULE
HYP2005-MC-1233-4-34
   52    54     1     0     0
SMALL
MULLIKEN_CHARGES
INVALID_CHARGES
Gaussian 16 #p B3LYP/6-31G* opt
@<TRIPOS>ATOM
      1 C          -3.221568    3.537683   -3.476598 C.3       1 <1>        -0.443200 
      2 C          -2.068408    3.421720   -2.475764 C.3       1 <1>        -0.252600 
      3 C          -2.441735    2.578039   -1.240103 C.3       1 <1>        -0.338200 
      4 C          -1.344277    2.497908   -0.203140 C.ar      1 <1>        -0.018900 
      5 C          -0.433775    1.485405   -0.107140 C.ar      1 <1>         0.336700 
      6 C          -0.391657    0.358034   -1.117613 C.3       1 <1>        -0.464900 
      7 C          -1.030916   -0.964009   -0.703494 C.ar      1 <1>         0.104200 
      8 C          -1.804462   -1.063949    0.434797 C.ar      1 <1>        -0.194500 
      9 C          -2.417844   -2.284755    0.806651 C.ar      1 <1>        -0.140400 
     10 C          -2.254362   -3.406380    0.032330 C.ar      1 <1>        -0.185000 
     11 C          -1.474286   -3.354861   -1.154290 C.ar      1 <1>         0.136200 
     12 C          -1.300298   -4.502958   -1.971517 C.ar      1 <1>        -0.192500 
     13 C          -0.553482   -4.447729   -3.126196 C.ar      1 <1>        -0.131400 
     14 C           0.052377   -3.230946   -3.513741 C.ar      1 <1>        -0.131900 
     15 C          -0.094221   -2.098882   -2.741114 C.ar      1 <1>        -0.199800 
     16 C          -0.853629   -2.118837   -1.538435 C.ar      1 <1>         0.079300 
     17 N           0.543369    1.483004    0.898403 N.ar      1 <1>        -0.542100 
     18 C           1.447235    0.365826    1.172493 C.3       1 <1>        -0.253600 
     19 C           1.252921   -0.309120    2.531775 C.2       1 <1>         0.664700 
     20 O           2.100739   -1.024344    3.013117 O.2       1 <1>        -0.477400 
     21 O           0.049293   -0.068956    3.075472 O.3       1 <1>        -0.459500 
     22 C          -0.178221   -0.665388    4.377333 C.3       1 <1>        -0.035600 
     23 C          -1.542272   -0.209296    4.857390 C.3       1 <1>        -0.466500 
     24 C           0.698946    2.546488    1.792661 C.ar      1 <1>         0.799000 
     25 O           1.573895    2.559155    2.645020 O.2       1 <1>        -0.521300 
     26 N          -0.211419    3.567779    1.632492 N.ar      1 <1>        -0.709000 
     27 C          -1.266792    3.635674    0.716070 C.ar      1 <1>         0.606800 
     28 O          -2.019969    4.601178    0.717268 O.2       1 <1>        -0.515400 
     29 H          -3.531510    2.551929   -3.845956 H         1 <1>         0.139100 
     30 H          -2.935331    4.143501   -4.343671 H         1 <1>         0.145500 
     31 H          -4.097027    4.009223   -3.014547 H         1 <1>         0.151800 
     32 H          -1.769353    4.420196   -2.135927 H         1 <1>         0.160100 
     33 H          -1.189678    2.983284   -2.969960 H         1 <1>         0.124600 
     34 H          -3.307984    3.044661   -0.758241 H         1 <1>         0.171700 
     35 H          -2.758610    1.576209   -1.550557 H         1 <1>         0.141300 
     36 H           0.654130    0.193104   -1.404220 H         1 <1>         0.174600 
     37 H          -0.875196    0.714547   -2.031763 H         1 <1>         0.194600 
     38 H          -1.943024   -0.194047    1.068008 H         1 <1>         0.148600 
     39 H          -3.019005   -2.323764    1.710858 H         1 <1>         0.134500 
     40 H          -2.720242   -4.348053    0.312292 H         1 <1>         0.134300 
     41 H          -1.773716   -5.433123   -1.665949 H         1 <1>         0.135100 
     42 H          -0.429471   -5.334185   -3.741853 H         1 <1>         0.135700 
     43 H           0.637360   -3.188078   -4.428451 H         1 <1>         0.134900 
     44 H           0.375934   -1.176771   -3.067183 H         1 <1>         0.130800 
     45 H           2.483277    0.708716    1.146411 H         1 <1>         0.215100 
     46 H           1.320817   -0.405994    0.415529 H         1 <1>         0.202200 
     47 H           0.624068   -0.343874    5.047807 H         1 <1>         0.173000 
     48 H          -0.115900   -1.753407    4.276743 H         1 <1>         0.162700 
     49 H          -1.746773   -0.634339    5.846073 H         1 <1>         0.156700 
     50 H          -2.331830   -0.537818    4.173534 H         1 <1>         0.157700 
     51 H          -1.584179    0.881509    4.936151 H         1 <1>         0.169100 
     52 H          -0.116118    4.345413    2.275787 H         1 <1>         0.353100 
@<TRIPOS>BOND
     1   18   45 1    
     2   14   43 1    
     3   15   44 1    
     4    6   36 1    
     5   18   46 1    
     6   17   18 1    
     7   18   19 1    
     8   24   25 2    
     9   19   20 2    
    10   15   14 ar   
    11   14   13 ar   
    12   16   15 ar   
    13   17   24 ar   
    14    5   17 ar   
    15   26   24 ar   
    16   19   21 1    
    17   13   42 1    
    18    2   33 1    
    19    6   37 1    
    20    5    6 1    
    21    6    7 1    
    22   13   12 ar   
    23    4    5 ar   
    24   26   52 1    
    25   27   26 ar   
    26    2   32 1    
    27    7   16 ar   
    28   16   11 ar   
    29    2    1 1    
    30    3    2 1    
    31    7    8 ar   
    32    1   30 1    
    33    4   27 ar   
    34    4    3 1    
    35   21   22 1    
    36   27   28 2    
    37   12   11 ar   
    38   12   41 1    
    39   22   47 1    
    40   11   10 ar   
    41    1   29 1    
    42    1   31 1    
    43    3   35 1    
    44    3   34 1    
    45   22   48 1    
    46   22   23 1    
    47    8   38 1    
    48    8    9 ar   
    49   10    9 ar   
    50   10   40 1    
    51    9   39 1    
    52   23   51 1    
    53   23   50 1    
    54   23   49 1    
@<TRIPOS>SUBSTRUCTURE
     1 ****       43 TEMP              0 ****  ****    0 ROOT 
