#	Name:			HYP2005-MC-1233-4-25
#	Creating user name:	Administrator
#	Creation time:		Sun Jul 05 16:45:44 2020

#	Modifying user name:	Administrator
#	Modification time:	Sun Jul 05 16:48:40 2020

@<TRIPOS>MOLECULE
HYP2005-MC-1233-4-25
   55    58     1     0     0
SMALL
MULLIKEN_CHARGES
INVALID_CHARGES
Gaussian 16 #p B3LYP/6-31G* opt
@<TRIPOS>ATOM
      1 C          -3.841890    2.477280   -0.679047 C.3       1 <1>        -0.452900 
      2 C          -2.429391    2.554623   -1.293014 C.3       1 <1>        -0.143500 
      3 C          -2.281363    3.788015   -2.208729 C.3       1 <1>        -0.456500 
      4 C          -1.340208    2.502313   -0.225462 C.ar      1 <1>        -0.000600 
      5 C          -0.461166    1.462596   -0.081804 C.ar      1 <1>         0.316100 
      6 C          -0.534239    0.196360   -0.908431 C.3       1 <1>        -0.480800 
      7 C           0.395952    0.123565   -2.115396 C.ar      1 <1>         0.103800 
      8 C           1.102108    1.224915   -2.557102 C.ar      1 <1>        -0.199300 
      9 C           1.952666    1.157881   -3.687196 C.ar      1 <1>        -0.135900 
     10 C           2.092682   -0.019979   -4.378303 C.ar      1 <1>        -0.187700 
     11 C           1.384811   -1.182769   -3.970121 C.ar      1 <1>         0.137100 
     12 C           1.512779   -2.408593   -4.675814 C.ar      1 <1>        -0.193900 
     13 C           0.821340   -3.531262   -4.281496 C.ar      1 <1>        -0.131300 
     14 C          -0.032696   -3.472637   -3.156398 C.ar      1 <1>        -0.133500 
     15 C          -0.177544   -2.299282   -2.447794 C.ar      1 <1>        -0.199800 
     16 C           0.522279   -1.119427   -2.824532 C.ar      1 <1>         0.073200 
     17 N           0.565652    1.502259    0.877083 N.ar      1 <1>        -0.528600 
     18 C           1.590928    0.462863    1.023291 C.3       1 <1>        -0.268200 
     19 C           1.211181   -0.613651    2.059133 C.2       1 <1>         0.410500 
     20 O           0.126480   -1.170156    1.967122 O.2       1 <1>        -0.454200 
     21 C           2.203836   -1.022658    3.090990 C.ar      1 <1>         0.062600 
     22 C           2.110020   -2.323120    3.613973 C.ar      1 <1>        -0.147400 
     23 C           3.010482   -2.765171    4.577681 C.ar      1 <1>        -0.205800 
     24 C           3.994212   -1.895370    5.035117 C.ar      1 <1>         0.333100 
     25 F           4.872240   -2.292372    5.965726 F         1 <1>        -0.272100 
     26 C           4.078712   -0.593363    4.538809 C.ar      1 <1>         0.321100 
     27 F           5.025935    0.223552    5.026143 F         1 <1>        -0.277400 
     28 C           3.197505   -0.149092    3.567190 C.ar      1 <1>        -0.254000 
     29 C           0.698951    2.546471    1.792233 C.ar      1 <1>         0.791900 
     30 O           1.572367    2.570179    2.651843 O.2       1 <1>        -0.527900 
     31 N          -0.226798    3.549247    1.644332 N.ar      1 <1>        -0.701400 
     32 C          -1.262692    3.635020    0.703210 C.ar      1 <1>         0.603300 
     33 O          -2.006129    4.608505    0.730199 O.2       1 <1>        -0.511100 
     34 H          -3.965829    1.564809   -0.084059 H         1 <1>         0.137800 
     35 H          -4.597719    2.468181   -1.473331 H         1 <1>         0.139600 
     36 H          -4.031347    3.338431   -0.033580 H         1 <1>         0.182500 
     37 H          -2.305511    1.682996   -1.941698 H         1 <1>         0.132900 
     38 H          -1.292198    3.811092   -2.680575 H         1 <1>         0.136500 
     39 H          -2.422217    4.714378   -1.648249 H         1 <1>         0.185100 
     40 H          -3.031550    3.746427   -3.007159 H         1 <1>         0.139400 
     41 H          -1.566450    0.064792   -1.244404 H         1 <1>         0.191400 
     42 H          -0.354011   -0.644423   -0.231838 H         1 <1>         0.209800 
     43 H           1.002468    2.171163   -2.033233 H         1 <1>         0.137600 
     44 H           2.490974    2.047825   -4.001158 H         1 <1>         0.136400 
     45 H           2.743083   -0.080375   -5.247379 H         1 <1>         0.134000 
     46 H           2.170844   -2.442463   -5.540919 H         1 <1>         0.134100 
     47 H           0.928227   -4.461891   -4.831772 H         1 <1>         0.134800 
     48 H          -0.579181   -4.359818   -2.848425 H         1 <1>         0.135200 
     49 H          -0.841065   -2.280754   -1.589587 H         1 <1>         0.142400 
     50 H           1.733791   -0.040122    0.064938 H         1 <1>         0.206600 
     51 H           2.525335    0.959778    1.272145 H         1 <1>         0.196500 
     52 H           1.326302   -2.977444    3.248590 H         1 <1>         0.169600 
     53 H           2.967210   -3.769758    4.985318 H         1 <1>         0.164900 
     54 H           3.247906    0.885459    3.246828 H         1 <1>         0.208900 
     55 H          -0.159017    4.314541    2.305902 H         1 <1>         0.355100 
@<TRIPOS>BOND
     1    1   34 1    
     2   14   48 1    
     3    1   35 1    
     4   22   52 1    
     5    1   36 1    
     6    2    1 1    
     7   15   49 1    
     8   23   53 1    
     9   19   20 2    
    10   15   14 ar   
    11   14   13 ar   
    12    6   41 1    
    13   22   23 ar   
    14   21   22 ar   
    15   16   15 ar   
    16   23   24 ar   
    17    6   42 1    
    18    2   37 1    
    19   13   47 1    
    20    4    2 1    
    21    2    3 1    
    22   19   21 1    
    23   18   19 1    
    24    5    6 1    
    25    6    7 1    
    26   13   12 ar   
    27   21   28 ar   
    28    5    4 ar   
    29    4   32 ar   
    30   17    5 ar   
    31   24   25 1    
    32   24   26 ar   
    33    3   40 1    
    34    7   16 ar   
    35   16   11 ar   
    36   32   33 2    
    37   32   31 ar   
    38    3   39 1    
    39    3   38 1    
    40   17   18 1    
    41   17   29 ar   
    42    7    8 ar   
    43   18   50 1    
    44   18   51 1    
    45   31   29 ar   
    46   31   55 1    
    47   28   26 ar   
    48   28   54 1    
    49   12   11 ar   
    50   12   46 1    
    51   29   30 2    
    52   26   27 1    
    53   11   10 ar   
    54    8   43 1    
    55    8    9 ar   
    56   10    9 ar   
    57   10   45 1    
    58    9   44 1    
@<TRIPOS>SUBSTRUCTURE
     1 ****       48 TEMP              0 ****  ****    0 ROOT 
