#	Name:			HYP2005-MC-1233-4-28
#	Creating user name:	Administrator
#	Creation time:		Sun Jul 05 16:45:44 2020

#	Modifying user name:	Administrator
#	Modification time:	Sun Jul 05 16:48:40 2020

@<TRIPOS>MOLECULE
HYP2005-MC-1233-4-28
   55    57     1     0     0
SMALL
MULLIKEN_CHARGES
INVALID_CHARGES
Gaussian 16 #p B3LYP/6-31G* opt
@<TRIPOS>ATOM
      1 C          -2.540072   -1.266455    3.070832 C.3       1 <1>        -0.454600 
      2 C          -1.077225   -1.682161    3.026161 C.3       1 <1>         0.121800 
      3 C          -0.461950   -1.912075    4.401701 C.3       1 <1>        -0.460100 
      4 O          -0.370478   -0.584629    2.360501 O.3       1 <1>        -0.463100 
      5 C           0.771729   -0.883366    1.724101 C.2       1 <1>         0.644800 
      6 O           1.260423   -1.988650    1.630431 O.2       1 <1>        -0.481100 
      7 C           1.445517    0.354651    1.138967 C.3       1 <1>        -0.290200 
      8 N           0.564236    1.492589    0.876867 N.ar      1 <1>        -0.549800 
      9 C          -0.445101    1.477855   -0.107428 C.ar      1 <1>         0.324400 
     10 C          -0.466882    0.264205   -1.036874 C.3       1 <1>        -0.473700 
     11 C          -0.285862    0.480477   -2.540582 C.ar      1 <1>         0.137100 
     12 C          -1.204039   -0.112656   -3.387547 C.ar      1 <1>        -0.204500 
     13 C          -1.085026   -0.045430   -4.794121 C.ar      1 <1>        -0.129100 
     14 C          -0.028597    0.623976   -5.360331 C.ar      1 <1>        -0.189900 
     15 C           0.951019    1.244572   -4.541381 C.ar      1 <1>         0.142600 
     16 C           2.056361    1.924947   -5.119075 C.ar      1 <1>        -0.194100 
     17 C           3.019337    2.515253   -4.334490 C.ar      1 <1>        -0.130600 
     18 C           2.911736    2.449748   -2.926582 C.ar      1 <1>        -0.141200 
     19 C           1.849943    1.801703   -2.334510 C.ar      1 <1>        -0.196100 
     20 C           0.833096    1.176765   -3.109483 C.ar      1 <1>         0.076300 
     21 C          -1.363459    2.486405   -0.201211 C.ar      1 <1>         0.007500 
     22 C          -2.517251    2.491375   -1.196799 C.3       1 <1>        -0.143800 
     23 C          -3.885047    2.488667   -0.481700 C.3       1 <1>        -0.455300 
     24 C          -2.411706    3.651856   -2.206716 C.3       1 <1>        -0.455000 
     25 C          -1.264983    3.631167    0.709169 C.ar      1 <1>         0.604900 
     26 O          -2.003875    4.608592    0.732582 O.2       1 <1>        -0.512500 
     27 N          -0.203512    3.563929    1.619157 N.ar      1 <1>        -0.699100 
     28 C           0.701197    2.545926    1.794190 C.ar      1 <1>         0.791900 
     29 O           1.555473    2.570128    2.668308 O.2       1 <1>        -0.519800 
     30 H          -3.138686   -2.058307    3.533672 H         1 <1>         0.154800 
     31 H          -2.927774   -1.086561    2.062978 H         1 <1>         0.156300 
     32 H          -2.666790   -0.350626    3.658044 H         1 <1>         0.163700 
     33 H          -0.942782   -2.572662    2.405416 H         1 <1>         0.164600 
     34 H           0.587300   -2.205844    4.311828 H         1 <1>         0.176400 
     35 H          -0.998171   -2.714419    4.920609 H         1 <1>         0.152700 
     36 H          -0.526862   -1.003285    5.009913 H         1 <1>         0.160500 
     37 H           2.004634    0.053997    0.251395 H         1 <1>         0.197500 
     38 H           2.168697    0.709452    1.878220 H         1 <1>         0.246400 
     39 H          -1.430796   -0.235492   -0.891974 H         1 <1>         0.183100 
     40 H           0.277446   -0.467156   -0.718221 H         1 <1>         0.190100 
     41 H          -2.047352   -0.650991   -2.960854 H         1 <1>         0.127900 
     42 H          -1.834408   -0.524844   -5.417551 H         1 <1>         0.135400 
     43 H           0.076694    0.685404   -6.440632 H         1 <1>         0.134600 
     44 H           2.127235    1.967152   -6.203382 H         1 <1>         0.134100 
     45 H           3.859775    3.030703   -4.790718 H         1 <1>         0.135500 
     46 H           3.670726    2.917405   -2.305420 H         1 <1>         0.136600 
     47 H           1.789091    1.783717   -1.253921 H         1 <1>         0.143100 
     48 H          -2.460974    1.567760   -1.775097 H         1 <1>         0.131200 
     49 H          -4.690411    2.410207   -1.221854 H         1 <1>         0.137400 
     50 H          -3.972882    1.635768    0.202524 H         1 <1>         0.129300 
     51 H          -4.031225    3.406582    0.091718 H         1 <1>         0.184800 
     52 H          -3.228279    3.587385   -2.935820 H         1 <1>         0.135700 
     53 H          -2.476902    4.617191   -1.699344 H         1 <1>         0.179500 
     54 H          -1.465139    3.607815   -2.756470 H         1 <1>         0.147300 
     55 H          -0.118852    4.340908    2.264875 H         1 <1>         0.353700 
@<TRIPOS>BOND
     1   13   42 1    
     2   12   41 1    
     3    1   30 1    
     4   12   13 ar   
     5   13   14 ar   
     6   23   49 1    
     7    1   31 1    
     8   11   12 ar   
     9   23   50 1    
    10    1   32 1    
    11    2    1 1    
    12    2   33 1    
    13   14   43 1    
    14   10   39 1    
    15   23   51 1    
    16   22   23 1    
    17   22   48 1    
    18   15   14 ar   
    19   24   52 1    
    20    3   35 1    
    21    2    3 1    
    22    4    2 1    
    23   10   11 1    
    24   11   20 ar   
    25   22   24 1    
    26   21   22 1    
    27   10   40 1    
    28    9   10 1    
    29    3   34 1    
    30    3   36 1    
    31   24   54 1    
    32   24   53 1    
    33    5    4 1    
    34   20   15 ar   
    35   15   16 ar   
    36    5    6 2    
    37   20   19 ar   
    38    9   21 ar   
    39   21   25 ar   
    40    7    5 1    
    41    8    9 ar   
    42   16   44 1    
    43   16   17 ar   
    44    7   37 1    
    45   25   26 2    
    46   25   27 ar   
    47    8    7 1    
    48    8   28 ar   
    49    7   38 1    
    50   19   47 1    
    51   19   18 ar   
    52   17   18 ar   
    53   17   45 1    
    54   27   28 ar   
    55   27   55 1    
    56   28   29 2    
    57   18   46 1    
@<TRIPOS>SUBSTRUCTURE
     1 ****       49 TEMP              0 ****  ****    0 ROOT 
