#	Name:			HYP2005-MC-1233-4-31
#	Creating user name:	Administrator
#	Creation time:		Sun Jul 05 16:45:44 2020

#	Modifying user name:	Administrator
#	Modification time:	Sun Jul 05 16:48:40 2020

@<TRIPOS>MOLECULE
HYP2005-MC-1233-4-31
   59    62     1     0     0
SMALL
MULLIKEN_CHARGES
INVALID_CHARGES
Gaussian 16 #p B3LYP/6-31G* opt
@<TRIPOS>ATOM
      1 C          -1.214587    3.567508   -3.213413 C.3       1 <1>        -0.447500 
      2 C          -2.394789    3.701208   -2.248644 C.3       1 <1>        -0.258100 
      3 C          -2.498818    2.576525   -1.191389 C.3       1 <1>        -0.330000 
      4 C          -1.341300    2.502225   -0.215810 C.ar      1 <1>        -0.010600 
      5 C          -0.460461    1.462782   -0.083983 C.ar      1 <1>         0.334200 
      6 C          -0.613058    0.163027   -0.850630 C.3       1 <1>        -0.466900 
      7 C           0.310669   -0.090536   -2.036866 C.ar      1 <1>         0.107500 
      8 C           1.210360    0.858047   -2.476437 C.ar      1 <1>        -0.206500 
      9 C           2.053278    0.616919   -3.589157 C.ar      1 <1>        -0.139400 
     10 C           1.987742   -0.576552   -4.263740 C.ar      1 <1>        -0.187300 
     11 C           1.074246   -1.585387   -3.854242 C.ar      1 <1>         0.135700 
     12 C           0.990199   -2.826024   -4.539939 C.ar      1 <1>        -0.193700 
     13 C           0.102126   -3.800224   -4.143831 C.ar      1 <1>        -0.132800 
     14 C          -0.745446   -3.569517   -3.036676 C.ar      1 <1>        -0.133400 
     15 C          -0.687753   -2.376300   -2.348263 C.ar      1 <1>        -0.201400 
     16 C           0.218878   -1.347404   -2.726584 C.ar      1 <1>         0.076600 
     17 N           0.564576    1.501469    0.875377 N.ar      1 <1>        -0.538200 
     18 C           1.657158    0.536359    0.964381 C.3       1 <1>        -0.260900 
     19 C           2.992706    1.136939    0.473393 C.2       1 <1>         0.436400 
     20 O           3.002245    2.197052   -0.131328 O.2       1 <1>        -0.477300 
     21 C           4.236420    0.367928    0.728921 C.ar      1 <1>         0.088400 
     22 C           4.259989   -0.872659    1.380235 C.ar      1 <1>        -0.189800 
     23 C           5.454568   -1.561582    1.584462 C.ar      1 <1>        -0.200000 
     24 C           6.659004   -1.003718    1.134123 C.ar      1 <1>         0.390200 
     25 O           7.878456   -1.581109    1.280274 O.3       1 <1>        -0.498300 
     26 C           7.963991   -2.837466    1.940417 C.3       1 <1>        -0.220700 
     27 C           6.650426    0.241644    0.479249 C.ar      1 <1>        -0.174200 
     28 C           5.457629    0.910796    0.281045 C.ar      1 <1>        -0.157600 
     29 C           0.703596    2.551385    1.788930 C.ar      1 <1>         0.804400 
     30 O           1.567498    2.560111    2.652454 O.2       1 <1>        -0.525900 
     31 N          -0.225059    3.556531    1.646662 N.ar      1 <1>        -0.704900 
     32 C          -1.253401    3.641319    0.705391 C.ar      1 <1>         0.603400 
     33 O          -2.015471    4.600770    0.722615 O.2       1 <1>        -0.513700 
     34 H          -1.227760    2.605645   -3.741008 H         1 <1>         0.140400 
     35 H          -0.256051    3.642490   -2.688209 H         1 <1>         0.149400 
     36 H          -1.239250    4.362079   -3.968069 H         1 <1>         0.142000 
     37 H          -3.333243    3.695442   -2.819368 H         1 <1>         0.129000 
     38 H          -2.350900    4.663099   -1.729977 H         1 <1>         0.174300 
     39 H          -2.633712    1.624829   -1.713451 H         1 <1>         0.133600 
     40 H          -3.412838    2.754299   -0.610895 H         1 <1>         0.159700 
     41 H          -1.647396    0.103404   -1.197538 H         1 <1>         0.189600 
     42 H          -0.518751   -0.660129   -0.129511 H         1 <1>         0.170300 
     43 H           1.297693    1.803970   -1.954158 H         1 <1>         0.172100 
     44 H           2.752810    1.388139   -3.897999 H         1 <1>         0.140800 
     45 H           2.631548   -0.768508   -5.118741 H         1 <1>         0.131500 
     46 H           1.645342   -2.992003   -5.392062 H         1 <1>         0.132800 
     47 H           0.048573   -4.744128   -4.679437 H         1 <1>         0.132400 
     48 H          -1.448968   -4.337852   -2.727329 H         1 <1>         0.131400 
     49 H          -1.353958   -2.224219   -1.505164 H         1 <1>         0.128700 
     50 H           1.432785   -0.341933    0.360188 H         1 <1>         0.192900 
     51 H           1.758246    0.224743    2.006110 H         1 <1>         0.200800 
     52 H           3.342021   -1.325904    1.741547 H         1 <1>         0.137500 
     53 H           5.437486   -2.519070    2.091753 H         1 <1>         0.138900 
     54 H           7.601304   -2.772356    2.974016 H         1 <1>         0.159500 
     55 H           7.399700   -3.611199    1.404464 H         1 <1>         0.157900 
     56 H           9.023120   -3.099248    1.944072 H         1 <1>         0.177600 
     57 H           7.595657    0.653913    0.141094 H         1 <1>         0.148800 
     58 H           5.437493    1.871671   -0.222255 H         1 <1>         0.167700 
     59 H          -0.147400    4.323926    2.304404 H         1 <1>         0.352300 
@<TRIPOS>BOND
     1   14   48 1    
     2   15   49 1    
     3    6   42 1    
     4   15   14 ar   
     5   14   13 ar   
     6   18   51 1    
     7   22   52 1    
     8   23   53 1    
     9   16   15 ar   
    10   26   54 1    
    11    6   41 1    
    12   18   50 1    
    13   13   47 1    
    14    5    6 1    
    15    6    7 1    
    16   26   55 1    
    17    3   40 1    
    18   18   17 1    
    19   19   18 1    
    20   29   30 2    
    21   12   13 ar   
    22   17   29 ar   
    23   17    5 ar   
    24   23   22 ar   
    25   22   21 ar   
    26   24   23 ar   
    27   29   31 ar   
    28    5    4 ar   
    29   26   56 1    
    30   25   26 1    
    31    3   39 1    
    32   31   59 1    
    33   31   32 ar   
    34    4   32 ar   
    35    4    3 1    
    36    7   16 ar   
    37   16   11 ar   
    38   32   33 2    
    39    3    2 1    
    40    7    8 ar   
    41   21   19 1    
    42   21   28 ar   
    43   19   20 2    
    44   11   12 ar   
    45   12   46 1    
    46   24   25 1    
    47   24   27 ar   
    48   11   10 ar   
    49    2   37 1    
    50    2   38 1    
    51    2    1 1    
    52    8   43 1    
    53    8    9 ar   
    54   28   27 ar   
    55   28   58 1    
    56   27   57 1    
    57   10    9 ar   
    58   10   45 1    
    59    1   34 1    
    60    1   35 1    
    61    1   36 1    
    62    9   44 1    
@<TRIPOS>SUBSTRUCTURE
     1 ****       52 TEMP              0 ****  ****    0 ROOT 
