#	Name:			HYP2005-MC-1233-4-14
#	Creating user name:	Administrator
#	Creation time:		Sun Jul 05 16:45:43 2020

#	Modifying user name:	Administrator
#	Modification time:	Sun Jul 05 16:48:40 2020

@<TRIPOS>MOLECULE
HYP2005-MC-1233-4-14
   52    55     1     0     0
SMALL
MULLIKEN_CHARGES
INVALID_CHARGES
Gaussian 16 #p B3LYP/6-31G* opt
@<TRIPOS>ATOM
      1 C          -2.062793    3.439319   -2.463357 C.3       1 <1>        -0.445100 
      2 C          -2.439396    2.580331   -1.242986 C.3       1 <1>        -0.335400 
      3 C          -1.343953    2.498354   -0.203176 C.ar      1 <1>        -0.013900 
      4 C          -0.436956    1.483990   -0.105553 C.ar      1 <1>         0.338000 
      5 C          -0.389682    0.363708   -1.124415 C.3       1 <1>        -0.463100 
      6 C          -1.055165   -0.954667   -0.742045 C.ar      1 <1>         0.103700 
      7 C          -1.849474   -1.062235    0.381017 C.ar      1 <1>        -0.198200 
      8 C          -2.484952   -2.281132    0.721838 C.ar      1 <1>        -0.137800 
      9 C          -2.325809   -3.391160   -0.069837 C.ar      1 <1>        -0.186900 
     10 C          -1.525675   -3.330549   -1.242934 C.ar      1 <1>         0.135300 
     11 C          -1.354058   -4.466690   -2.077366 C.ar      1 <1>        -0.193300 
     12 C          -0.586530   -4.402958   -3.218108 C.ar      1 <1>        -0.132500 
     13 C           0.043262   -3.188784   -3.574027 C.ar      1 <1>        -0.133000 
     14 C          -0.100589   -2.068140   -2.783944 C.ar      1 <1>        -0.202400 
     15 C          -0.880708   -2.097319   -1.594581 C.ar      1 <1>         0.077700 
     16 N           0.546605    1.484239    0.893515 N.ar      1 <1>        -0.539200 
     17 C           1.382981    0.336525    1.224119 C.3       1 <1>        -0.265700 
     18 C           0.889348   -0.381908    2.497052 C.2       1 <1>         0.441000 
     19 O          -0.177836   -0.079071    3.000913 O.2       1 <1>        -0.467000 
     20 C           1.745180   -1.462429    3.064877 C.ar      1 <1>         0.084900 
     21 C           1.297448   -2.110369    4.229116 C.ar      1 <1>        -0.152700 
     22 C           2.040292   -3.130702    4.808688 C.ar      1 <1>        -0.199100 
     23 C           3.241204   -3.502162    4.208201 C.ar      1 <1>         0.395600 
     24 F           3.966379   -4.490119    4.761794 F         1 <1>        -0.286500 
     25 C           3.716545   -2.885936    3.055295 C.ar      1 <1>        -0.202000 
     26 C           2.961661   -1.862432    2.488087 C.ar      1 <1>        -0.179200 
     27 C           0.696962    2.544842    1.795408 C.ar      1 <1>         0.802800 
     28 O           1.571481    2.559807    2.647870 O.2       1 <1>        -0.525800 
     29 N          -0.206913    3.570274    1.627896 N.ar      1 <1>        -0.706200 
     30 C          -1.266619    3.635112    0.717207 C.ar      1 <1>         0.608700 
     31 O          -2.020630    4.599973    0.718468 O.2       1 <1>        -0.515300 
     32 H          -2.900623    3.498931   -3.167244 H         1 <1>         0.147300 
     33 H          -1.199551    3.025674   -2.999007 H         1 <1>         0.134700 
     34 H          -1.811817    4.456553   -2.147806 H         1 <1>         0.171900 
     35 H          -3.309335    3.034436   -0.757661 H         1 <1>         0.176400 
     36 H          -2.745633    1.578746   -1.560827 H         1 <1>         0.144900 
     37 H           0.659946    0.188367   -1.390767 H         1 <1>         0.168800 
     38 H          -0.847805    0.736521   -2.045483 H         1 <1>         0.193900 
     39 H          -1.980122   -0.205662    1.033413 H         1 <1>         0.161700 
     40 H          -3.095593   -2.326296    1.618875 H         1 <1>         0.140400 
     41 H          -2.809100   -4.330839    0.186265 H         1 <1>         0.132800 
     42 H          -1.846905   -5.394532   -1.796630 H         1 <1>         0.134100 
     43 H          -0.465689   -5.280328   -3.847386 H         1 <1>         0.134000 
     44 H           0.643311   -3.138031   -4.478607 H         1 <1>         0.132600 
     45 H           0.386490   -1.146943   -3.086827 H         1 <1>         0.129000 
     46 H           1.387454   -0.376644    0.399761 H         1 <1>         0.192000 
     47 H           2.404917    0.688733    1.381214 H         1 <1>         0.206700 
     48 H           0.356737   -1.791174    4.664933 H         1 <1>         0.176200 
     49 H           1.711460   -3.639625    5.708581 H         1 <1>         0.158800 
     50 H           4.658110   -3.208340    2.624003 H         1 <1>         0.156800 
     51 H           3.335752   -1.380376    1.590674 H         1 <1>         0.146400 
     52 H          -0.118556    4.342084    2.279263 H         1 <1>         0.353300 
@<TRIPOS>BOND
     1   13   44 1    
     2   25   50 1    
     3   14   45 1    
     4   26   51 1    
     5   17   47 1    
     6   14   13 ar   
     7   13   12 ar   
     8    5   37 1    
     9    1   33 1    
    10   15   14 ar   
    11   26   25 ar   
    12   25   23 ar   
    13   17   46 1    
    14   20   26 ar   
    15   12   43 1    
    16   16   17 1    
    17   17   18 1    
    18    5   38 1    
    19    1   34 1    
    20   12   11 ar   
    21   27   28 2    
    22    4    5 1    
    23    5    6 1    
    24   16   27 ar   
    25    4   16 ar   
    26    1   32 1    
    27    2    1 1    
    28   29   27 ar   
    29    3    4 ar   
    30   23   24 1    
    31   23   22 ar   
    32    6   15 ar   
    33   15   10 ar   
    34   29   52 1    
    35   30   29 ar   
    36   18   20 1    
    37   20   21 ar   
    38    3   30 ar   
    39    3    2 1    
    40   18   19 2    
    41    6    7 ar   
    42   30   31 2    
    43   11   10 ar   
    44   11   42 1    
    45    2   36 1    
    46    2   35 1    
    47   10    9 ar   
    48   22   21 ar   
    49   22   49 1    
    50   21   48 1    
    51    7   39 1    
    52    7    8 ar   
    53    9    8 ar   
    54    9   41 1    
    55    8   40 1    
@<TRIPOS>SUBSTRUCTURE
     1 ****       50 TEMP              0 ****  ****    0 ROOT 
