#	Name:			HYP2005-MC-1233-4-37
#	Creating user name:	Administrator
#	Creation time:		Sun Jul 05 16:45:45 2020

#	Modifying user name:	Administrator
#	Modification time:	Sun Jul 05 16:48:40 2020

@<TRIPOS>MOLECULE
HYP2005-MC-1233-4-37
   50    53     1     0     0
SMALL
MULLIKEN_CHARGES
INVALID_CHARGES
Gaussian 16 #p B3LYP/6-31G* opt
@<TRIPOS>ATOM
      1 C          -3.664479    2.593522   -0.736246 C.3       1 <1>        -0.226500 
      2 O          -2.297792    2.465177   -1.161600 O.3       1 <1>        -0.521500 
      3 C          -1.347270    2.488458   -0.178095 C.ar      1 <1>         0.204000 
      4 C          -0.447639    1.465224   -0.088957 C.ar      1 <1>         0.336600 
      5 C          -0.595997    0.241236   -0.959902 C.3       1 <1>        -0.431200 
      6 C           0.352409    0.115523   -2.148566 C.ar      1 <1>         0.099600 
      7 C           1.061423    1.202662   -2.616168 C.ar      1 <1>        -0.190200 
      8 C           1.920988    1.098536   -3.736036 C.ar      1 <1>        -0.136300 
      9 C           2.065002   -0.099590   -4.390397 C.ar      1 <1>        -0.188300 
     10 C           1.346905   -1.246763   -3.957611 C.ar      1 <1>         0.136300 
     11 C           1.476100   -2.492052   -4.628085 C.ar      1 <1>        -0.193500 
     12 C           0.769077   -3.599184   -4.217677 C.ar      1 <1>        -0.133000 
     13 C          -0.106060   -3.502548   -3.111955 C.ar      1 <1>        -0.133500 
     14 C          -0.250990   -2.309818   -2.436236 C.ar      1 <1>        -0.203100 
     15 C           0.469528   -1.145825   -2.825182 C.ar      1 <1>         0.076100 
     16 N           0.582244    1.507141    0.856964 N.ar      1 <1>        -0.548700 
     17 C           1.707762    0.581150    0.872940 C.3       1 <1>        -0.266000 
     18 C           2.986778    1.227887    0.301812 C.2       1 <1>         0.442000 
     19 O           2.941393    2.330176   -0.214591 O.2       1 <1>        -0.466000 
     20 C           4.258142    0.454746    0.390929 C.ar      1 <1>         0.085200 
     21 C           5.425979    1.051494   -0.114858 C.ar      1 <1>        -0.152500 
     22 C           6.644245    0.386220   -0.069852 C.ar      1 <1>        -0.199200 
     23 C           6.684238   -0.890324    0.486336 C.ar      1 <1>         0.395500 
     24 F           7.859527   -1.542335    0.533132 F         1 <1>        -0.286700 
     25 C           5.550254   -1.514242    0.995636 C.ar      1 <1>        -0.201900 
     26 C           4.336638   -0.833072    0.945684 C.ar      1 <1>        -0.179300 
     27 C           0.701642    2.542997    1.787655 C.ar      1 <1>         0.801500 
     28 O           1.574471    2.563644    2.641258 O.2       1 <1>        -0.523900 
     29 N          -0.258290    3.529945    1.672874 N.ar      1 <1>        -0.714200 
     30 C          -1.268474    3.648133    0.712279 C.ar      1 <1>         0.620200 
     31 O          -1.996707    4.631049    0.687657 O.2       1 <1>        -0.508700 
     32 H          -3.929486    1.789941   -0.036137 H         1 <1>         0.134600 
     33 H          -3.837116    3.565931   -0.272158 H         1 <1>         0.196200 
     34 H          -4.262724    2.495235   -1.644241 H         1 <1>         0.162700 
     35 H          -1.624895    0.251247   -1.332600 H         1 <1>         0.202800 
     36 H          -0.510873   -0.643765   -0.317251 H         1 <1>         0.161200 
     37 H           0.977537    2.158662   -2.110702 H         1 <1>         0.158200 
     38 H           2.467351    1.977050   -4.066973 H         1 <1>         0.139400 
     39 H           2.725871   -0.188698   -5.249337 H         1 <1>         0.131400 
     40 H           2.147300   -2.552891   -5.481654 H         1 <1>         0.133000 
     41 H           0.877084   -4.544524   -4.742073 H         1 <1>         0.132600 
     42 H          -0.671481   -4.374768   -2.794682 H         1 <1>         0.130900 
     43 H          -0.941506   -2.262559   -1.600404 H         1 <1>         0.128200 
     44 H           1.467051   -0.307363    0.288884 H         1 <1>         0.194400 
     45 H           1.888621    0.277441    1.906913 H         1 <1>         0.206600 
     46 H           5.351258    2.046588   -0.540082 H         1 <1>         0.176400 
     47 H           7.555853    0.832506   -0.453057 H         1 <1>         0.158700 
     48 H           5.630160   -2.509407    1.419799 H         1 <1>         0.156600 
     49 H           3.453383   -1.320265    1.345738 H         1 <1>         0.146400 
     50 H          -0.161873    4.304796    2.319688 H         1 <1>         0.356700 
@<TRIPOS>BOND
     1   13   42 1    
     2   25   48 1    
     3   14   43 1    
     4   26   49 1    
     5   17   45 1    
     6    5   36 1    
     7   14   13 ar   
     8   13   12 ar   
     9   15   14 ar   
    10    1   32 1    
    11   17   44 1    
    12   26   25 ar   
    13   25   23 ar   
    14   20   26 ar   
    15   12   41 1    
    16   17   16 1    
    17   18   17 1    
    18   27   28 2    
    19    5   35 1    
    20   12   11 ar   
    21    4    5 1    
    22    5    6 1    
    23   16   27 ar   
    24   16    4 ar   
    25   27   29 ar   
    26    4    3 ar   
    27    1   33 1    
    28    1   34 1    
    29    2    1 1    
    30   23   24 1    
    31   23   22 ar   
    32    6   15 ar   
    33   15   10 ar   
    34   29   50 1    
    35   29   30 ar   
    36    3   30 ar   
    37    3    2 1    
    38   20   18 1    
    39   20   21 ar   
    40   18   19 2    
    41    6    7 ar   
    42   30   31 2    
    43   11   10 ar   
    44   11   40 1    
    45   10    9 ar   
    46   22   21 ar   
    47   22   47 1    
    48   21   46 1    
    49    7   37 1    
    50    7    8 ar   
    51    9    8 ar   
    52    9   39 1    
    53    8   38 1    
@<TRIPOS>SUBSTRUCTURE
     1 ****       48 TEMP              0 ****  ****    0 ROOT 
