#	Name:			HYP2005-MC-1233-4-1
#	Creating user name:	Administrator
#	Creation time:		Sun Jul 05 16:45:43 2020

#	Modifying user name:	Administrator
#	Modification time:	Sun Jul 05 16:48:40 2020

@<TRIPOS>MOLECULE
HYP2005-MC-1233-4-1
   49    52     1     0     0
SMALL
MULLIKEN_CHARGES
INVALID_CHARGES
Gaussian 16 #p B3LYP/6-31G* opt
@<TRIPOS>ATOM
      1 C          -2.409233    2.593599   -1.268930 C.3       1 <1>        -0.530900 
      2 C          -1.335803    2.506436   -0.215021 C.ar      1 <1>         0.003800 
      3 C          -0.453534    1.473176   -0.097193 C.ar      1 <1>         0.364200 
      4 C          -0.520961    0.268804   -1.028005 C.3       1 <1>        -0.458800 
      5 C          -1.829789   -0.515218   -1.085884 C.ar      1 <1>         0.133000 
      6 C          -2.425869   -0.702761   -2.318190 C.ar      1 <1>        -0.209700 
      7 C          -3.596752   -1.478950   -2.476419 C.ar      1 <1>        -0.128700 
      8 C          -4.175520   -2.078019   -1.384754 C.ar      1 <1>        -0.191000 
      9 C          -3.601795   -1.928252   -0.094335 C.ar      1 <1>         0.142400 
     10 C          -4.182888   -2.555490    1.040222 C.ar      1 <1>        -0.194500 
     11 C          -3.624065   -2.425397    2.290430 C.ar      1 <1>        -0.131100 
     12 C          -2.451650   -1.653359    2.456880 C.ar      1 <1>        -0.141100 
     13 C          -1.865241   -1.029242    1.377578 C.ar      1 <1>        -0.196900 
     14 C          -2.411064   -1.139518    0.068227 C.ar      1 <1>         0.080700 
     15 N           0.554573    1.482846    0.884875 N.ar      1 <1>        -0.552600 
     16 C           1.646285    0.515704    0.927260 C.3       1 <1>        -0.298200 
     17 C           2.628320    0.671941   -0.243950 C.2       1 <1>         0.417900 
     18 O           2.407253    1.483560   -1.127547 O.2       1 <1>        -0.459000 
     19 C           3.837573   -0.203637   -0.263774 C.ar      1 <1>         0.080900 
     20 C           4.135405   -1.114938    0.762147 C.ar      1 <1>        -0.180900 
     21 C           5.279560   -1.908198    0.687071 C.ar      1 <1>        -0.133600 
     22 C           6.135048   -1.798331   -0.410737 C.ar      1 <1>        -0.115900 
     23 C           5.847059   -0.891875   -1.435779 C.ar      1 <1>        -0.132700 
     24 C           4.706203   -0.099748   -1.362830 C.ar      1 <1>        -0.153400 
     25 C           0.699486    2.544659    1.792755 C.ar      1 <1>         0.789800 
     26 O           1.587212    2.589021    2.633736 O.2       1 <1>        -0.524800 
     27 N          -0.250493    3.529193    1.672130 N.ar      1 <1>        -0.697100 
     28 C          -1.264288    3.635576    0.711482 C.ar      1 <1>         0.598100 
     29 O          -1.997175    4.615684    0.708870 O.2       1 <1>        -0.512800 
     30 H          -2.745552    3.630552   -1.333645 H         1 <1>         0.190900 
     31 H          -2.046246    2.279264   -2.252641 H         1 <1>         0.147800 
     32 H          -3.281043    1.974719   -1.027953 H         1 <1>         0.175600 
     33 H          -0.299735    0.633673   -2.037174 H         1 <1>         0.194200 
     34 H           0.282550   -0.433468   -0.800052 H         1 <1>         0.167000 
     35 H          -1.984267   -0.237674   -3.196185 H         1 <1>         0.128900 
     36 H          -4.032056   -1.594408   -3.465072 H         1 <1>         0.134500 
     37 H          -5.076698   -2.676905   -1.491117 H         1 <1>         0.133300 
     38 H          -5.084697   -3.146503    0.898828 H         1 <1>         0.133100 
     39 H          -4.079735   -2.911076    3.148817 H         1 <1>         0.134000 
     40 H          -2.012215   -1.546995    3.445072 H         1 <1>         0.133700 
     41 H          -0.978049   -0.429327    1.540206 H         1 <1>         0.139400 
     42 H           2.171920    0.706455    1.865708 H         1 <1>         0.236800 
     43 H           1.266284   -0.509988    0.971686 H         1 <1>         0.185300 
     44 H           3.485367   -1.208427    1.626554 H         1 <1>         0.144700 
     45 H           5.504079   -2.609049    1.485925 H         1 <1>         0.143400 
     46 H           7.026643   -2.416935   -0.467038 H         1 <1>         0.144200 
     47 H           6.513844   -0.804924   -2.288975 H         1 <1>         0.144600 
     48 H           4.463349    0.611768   -2.145124 H         1 <1>         0.168400 
     49 H          -0.161600    4.301980    2.321866 H         1 <1>         0.353400 
@<TRIPOS>BOND
     1    7   36 1    
     2    6   35 1    
     3    1   31 1    
     4    6    7 ar   
     5    7    8 ar   
     6    5    6 ar   
     7   24   48 1    
     8    4   33 1    
     9    1   30 1    
    10   23   47 1    
    11    1   32 1    
    12    2    1 1    
    13   17   18 2    
    14   24   23 ar   
    15   19   24 ar   
    16   23   22 ar   
    17    4    5 1    
    18    4   34 1    
    19    3    4 1    
    20    8   37 1    
    21    9    8 ar   
    22    5   14 ar   
    23    3    2 ar   
    24    2   28 ar   
    25   15    3 ar   
    26   17   19 1    
    27   16   17 1    
    28   28   29 2    
    29   19   20 ar   
    30   28   27 ar   
    31   22   46 1    
    32   22   21 ar   
    33   14    9 ar   
    34    9   10 ar   
    35   14   13 ar   
    36   15   16 1    
    37   15   25 ar   
    38   16   43 1    
    39   16   42 1    
    40   27   25 ar   
    41   27   49 1    
    42   20   21 ar   
    43   20   44 1    
    44   21   45 1    
    45   25   26 2    
    46   10   38 1    
    47   10   11 ar   
    48   13   41 1    
    49   13   12 ar   
    50   11   12 ar   
    51   11   39 1    
    52   12   40 1    
@<TRIPOS>SUBSTRUCTURE
     1 ****       31 TEMP              0 ****  ****    0 ROOT 
