#	Name:			HYP2005-MC-1233-4-19
#	Creating user name:	Administrator
#	Creation time:		Sun Jul 05 16:45:43 2020

#	Modifying user name:	Administrator
#	Modification time:	Sun Jul 05 16:48:40 2020

@<TRIPOS>MOLECULE
HYP2005-MC-1233-4-19
   46    48     1     0     0
SMALL
MULLIKEN_CHARGES
INVALID_CHARGES
Gaussian 16 #p B3LYP/6-31G* opt
@<TRIPOS>ATOM
      1 C          -2.080260    3.423073   -2.461684 C.3       1 <1>        -0.445100 
      2 C          -2.449233    2.572676   -1.233018 C.3       1 <1>        -0.335700 
      3 C          -1.346359    2.495814   -0.200472 C.ar      1 <1>        -0.012700 
      4 C          -0.436903    1.483432   -0.106090 C.ar      1 <1>         0.337500 
      5 C          -0.396747    0.356224   -1.116931 C.3       1 <1>        -0.466800 
      6 C          -1.044803   -0.963892   -0.711067 C.ar      1 <1>         0.104300 
      7 C          -1.762339   -1.087395    0.460998 C.ar      1 <1>        -0.198800 
      8 C          -2.377963   -2.310187    0.824059 C.ar      1 <1>        -0.139900 
      9 C          -2.277291   -3.407298    0.005234 C.ar      1 <1>        -0.187500 
     10 C          -1.555573   -3.330473   -1.216805 C.ar      1 <1>         0.135200 
     11 C          -1.443438   -4.453300   -2.078667 C.ar      1 <1>        -0.193500 
     12 C          -0.749131   -4.374024   -3.264538 C.ar      1 <1>        -0.132200 
     13 C          -0.135408   -3.157240   -3.639394 C.ar      1 <1>        -0.132700 
     14 C          -0.223725   -2.049014   -2.824145 C.ar      1 <1>        -0.200600 
     15 C          -0.929021   -2.094162   -1.589708 C.ar      1 <1>         0.078600 
     16 N           0.548501    1.487539    0.891985 N.ar      1 <1>        -0.536600 
     17 C           1.418751    0.357803    1.196593 C.3       1 <1>        -0.255800 
     18 C           1.028928   -0.309155    2.517623 C.2       1 <1>         0.659400 
     19 O          -0.028359   -0.174658    3.087913 O.2       1 <1>        -0.474500 
     20 O           2.028392   -1.106187    2.929494 O.3       1 <1>        -0.449400 
     21 C           1.781510   -1.824927    4.152360 C.3       1 <1>        -0.221400 
     22 C           0.697811    2.546891    1.794416 C.ar      1 <1>         0.802500 
     23 O           1.570557    2.556412    2.648862 O.2       1 <1>        -0.523500 
     24 N          -0.207934    3.570574    1.629648 N.ar      1 <1>        -0.707800 
     25 C          -1.266330    3.635316    0.716760 C.ar      1 <1>         0.607800 
     26 O          -2.019367    4.600612    0.716524 O.2       1 <1>        -0.514100 
     27 H          -2.923307    3.479485   -3.159581 H         1 <1>         0.147700 
     28 H          -1.221872    3.004546   -3.001156 H         1 <1>         0.135200 
     29 H          -1.825105    4.442004   -2.154835 H         1 <1>         0.171900 
     30 H          -2.759465    1.569619   -1.541984 H         1 <1>         0.145700 
     31 H          -3.314812    3.031327   -0.744374 H         1 <1>         0.176700 
     32 H           0.649475    0.186130   -1.401760 H         1 <1>         0.171800 
     33 H          -0.874849    0.718111   -2.031696 H         1 <1>         0.193800 
     34 H          -1.847505   -0.242755    1.136008 H         1 <1>         0.162000 
     35 H          -2.927512   -2.367599    1.759157 H         1 <1>         0.141000 
     36 H          -2.747505   -4.349200    0.277247 H         1 <1>         0.132400 
     37 H          -1.922261   -5.383697   -1.782231 H         1 <1>         0.133700 
     38 H          -0.672783   -5.241471   -3.914239 H         1 <1>         0.134000 
     39 H           0.408640   -3.095182   -4.577928 H         1 <1>         0.133200 
     40 H           0.251607   -1.125934   -3.139966 H         1 <1>         0.129500 
     41 H           1.354130   -0.393222    0.410942 H         1 <1>         0.202500 
     42 H           2.454016    0.695773    1.268328 H         1 <1>         0.214100 
     43 H           0.910446   -2.476116    4.042678 H         1 <1>         0.172900 
     44 H           2.681963   -2.412387    4.331288 H         1 <1>         0.169400 
     45 H           1.607093   -1.124984    4.972898 H         1 <1>         0.181700 
     46 H          -0.120463    4.342643    2.280883 H         1 <1>         0.353800 
@<TRIPOS>BOND
     1    8   35 1    
     2    9   36 1    
     3    8    9 ar   
     4    7    8 ar   
     5   10    9 ar   
     6    7   34 1    
     7    2   31 1    
     8    6    7 ar   
     9   11   37 1    
    10   25   26 2    
    11   18   19 2    
    12    2   30 1    
    13   21   43 1    
    14    3    2 1    
    15    2    1 1    
    16   10   11 ar   
    17   15   10 ar   
    18   21   45 1    
    19    3   25 ar   
    20   24   25 ar   
    21   11   12 ar   
    22    4    3 ar   
    23    6   15 ar   
    24    5    6 1    
    25    1   27 1    
    26   21   44 1    
    27   20   21 1    
    28   24   46 1    
    29   22   24 ar   
    30   15   14 ar   
    31   18   20 1    
    32   17   18 1    
    33    1   29 1    
    34    1   28 1    
    35    4    5 1    
    36   16    4 ar   
    37   16   22 ar   
    38   22   23 2    
    39    5   33 1    
    40    5   32 1    
    41   16   17 1    
    42   12   38 1    
    43   12   13 ar   
    44   17   41 1    
    45   17   42 1    
    46   14   13 ar   
    47   14   40 1    
    48   13   39 1    
@<TRIPOS>SUBSTRUCTURE
     1 ****       26 TEMP              0 ****  ****    0 ROOT 
