#	Name:			HYP2005-MC-1233-4-41
#	Creating user name:	Administrator
#	Creation time:		Sun Jul 05 16:45:45 2020

#	Modifying user name:	Administrator
#	Modification time:	Sun Jul 05 16:48:40 2020

@<TRIPOS>MOLECULE
HYP2005-MC-1233-4-41
   53    56     1     0     0
SMALL
MULLIKEN_CHARGES
INVALID_CHARGES
Gaussian 16 #p B3LYP/6-31G* opt
@<TRIPOS>ATOM
      1 C          -3.474052    3.140828   -3.097649 C.3       1 <1>        -0.462500 
      2 C          -2.638136    3.609947   -1.920749 C.3       1 <1>        -0.033500 
      3 O          -2.336416    2.439670   -1.121924 O.3       1 <1>        -0.546700 
      4 C          -1.316434    2.513102   -0.210851 C.ar      1 <1>         0.211200 
      5 C          -0.434239    1.470477   -0.105508 C.ar      1 <1>         0.364200 
      6 C          -0.617911    0.237106   -0.978221 C.3       1 <1>        -0.462600 
      7 C           0.504605   -0.243234   -1.895561 C.ar      1 <1>         0.124200 
      8 C           0.991868   -1.526823   -1.731464 C.ar      1 <1>        -0.224600 
      9 C           1.989122   -2.067164   -2.576255 C.ar      1 <1>        -0.125300 
     10 C           2.499271   -1.312001   -3.603268 C.ar      1 <1>        -0.190100 
     11 C           2.018271    0.003629   -3.836514 C.ar      1 <1>         0.145500 
     12 C           2.514833    0.785113   -4.913820 C.ar      1 <1>        -0.195500 
     13 C           2.028417    2.048534   -5.157959 C.ar      1 <1>        -0.129100 
     14 C           1.014872    2.583555   -4.330058 C.ar      1 <1>        -0.145900 
     15 C           0.517692    1.854737   -3.272331 C.ar      1 <1>        -0.178700 
     16 C           1.001087    0.550368   -2.982446 C.ar      1 <1>         0.086300 
     17 N           0.527109    1.467708    0.910923 N.ar      1 <1>        -0.557100 
     18 C           1.536613    0.428753    1.063769 C.3       1 <1>        -0.269700 
     19 C           2.838587    0.781006    0.319797 C.2       1 <1>         0.438100 
     20 O           2.898700    1.788272   -0.361301 O.2       1 <1>        -0.456200 
     21 C           4.001783   -0.144907    0.465574 C.ar      1 <1>         0.087500 
     22 C           3.967839   -1.290360    1.275764 C.ar      1 <1>        -0.181600 
     23 C           5.086916   -2.116466    1.374258 C.ar      1 <1>        -0.135000 
     24 C           6.248508   -1.806123    0.664839 C.ar      1 <1>        -0.117700 
     25 C           6.290693   -0.666671   -0.144549 C.ar      1 <1>        -0.133800 
     26 C           5.175086    0.158216   -0.243344 C.ar      1 <1>        -0.150900 
     27 C           0.703218    2.544430    1.784033 C.ar      1 <1>         0.796900 
     28 O           1.570204    2.567690    2.644494 O.2       1 <1>        -0.523900 
     29 N          -0.205590    3.569610    1.617512 N.ar      1 <1>        -0.712400 
     30 C          -1.265373    3.647095    0.711814 C.ar      1 <1>         0.617900 
     31 O          -2.038916    4.596481    0.739217 O.2       1 <1>        -0.513100 
     32 H          -3.773009    4.000344   -3.707802 H         1 <1>         0.150200 
     33 H          -4.381037    2.637657   -2.746819 H         1 <1>         0.162600 
     34 H          -2.914030    2.443932   -3.730238 H         1 <1>         0.156500 
     35 H          -1.701099    4.072456   -2.257954 H         1 <1>         0.134000 
     36 H          -3.169358    4.335424   -1.303028 H         1 <1>         0.185900 
     37 H          -1.508718    0.439734   -1.577623 H         1 <1>         0.210800 
     38 H          -0.888139   -0.596560   -0.316205 H         1 <1>         0.168400 
     39 H           0.593485   -2.148997   -0.932129 H         1 <1>         0.120700 
     40 H           2.346237   -3.078449   -2.403431 H         1 <1>         0.132200 
     41 H           3.269724   -1.712367   -4.257724 H         1 <1>         0.131800 
     42 H           3.288327    0.359799   -5.548923 H         1 <1>         0.130100 
     43 H           2.416395    2.634663   -5.986488 H         1 <1>         0.132100 
     44 H           0.627243    3.579025   -4.529169 H         1 <1>         0.130200 
     45 H          -0.260066    2.278175   -2.651004 H         1 <1>         0.152500 
     46 H           1.149712   -0.524874    0.708513 H         1 <1>         0.182900 
     47 H           1.749822    0.338295    2.131199 H         1 <1>         0.213200 
     48 H           3.075060   -1.543415    1.839479 H         1 <1>         0.136500 
     49 H           5.053241   -2.999280    2.006632 H         1 <1>         0.138100 
     50 H           7.120659   -2.449749    0.743846 H         1 <1>         0.139700 
     51 H           7.194997   -0.423777   -0.695771 H         1 <1>         0.140600 
     52 H           5.183888    1.047972   -0.864174 H         1 <1>         0.169400 
     53 H          -0.115618    4.340437    2.269926 H         1 <1>         0.355800 
@<TRIPOS>BOND
     1   13   43 1    
     2   14   44 1    
     3   26   52 1    
     4   25   51 1    
     5   14   13 ar   
     6   12   13 ar   
     7   15   14 ar   
     8   19   20 2    
     9   29   53 1    
    10   26   25 ar   
    11   21   26 ar   
    12   12   42 1    
    13   25   24 ar   
    14   11   12 ar   
    15    2   35 1    
    16   27   28 2    
    17   27   29 ar   
    18   30   29 ar   
    19   30   31 2    
    20   15   45 1    
    21   16   15 ar   
    22   19   21 1    
    23   18   19 1    
    24   17   27 ar   
    25    4   30 ar   
    26   21   22 ar   
    27    2   36 1    
    28   24   50 1    
    29   23   24 ar   
    30    2    1 1    
    31    3    2 1    
    32   16   11 ar   
    33   11   10 ar   
    34    1   32 1    
    35    7   16 ar   
    36    5    4 ar   
    37    4    3 1    
    38   17   18 1    
    39    5   17 ar   
    40   10   41 1    
    41    1   34 1    
    42    1   33 1    
    43   18   47 1    
    44   18   46 1    
    45    6    5 1    
    46   22   23 ar   
    47   22   48 1    
    48   10    9 ar   
    49   23   49 1    
    50    7    6 1    
    51    7    8 ar   
    52    6   37 1    
    53    6   38 1    
    54    9    8 ar   
    55    9   40 1    
    56    8   39 1    
@<TRIPOS>SUBSTRUCTURE
     1 ****       43 TEMP              0 ****  ****    0 ROOT 
