#	Name:			HYP2005-MC-1233-5-3
#	Creating user name:	Administrator
#	Creation time:		Sun Jul 05 16:45:46 2020

#	Modifying user name:	Administrator
#	Modification time:	Sun Jul 05 16:48:40 2020

@<TRIPOS>MOLECULE
HYP2005-MC-1233-5-3
   55    58     1     0     0
SMALL
MULLIKEN_CHARGES
INVALID_CHARGES
Gaussian 16 #p B3LYP/6-31G* opt
@<TRIPOS>ATOM
      1 C          -2.132126    3.378830   -2.455761 C.3       1 <1>        -0.447300 
      2 C          -2.490783    2.571128   -1.195338 C.3       1 <1>        -0.331600 
      3 C          -1.360879    2.487946   -0.192611 C.ar      1 <1>        -0.013900 
      4 C          -0.454019    1.471753   -0.089913 C.ar      1 <1>         0.340300 
      5 C          -0.487799    0.254693   -0.986145 C.3       1 <1>        -0.455500 
      6 C           0.534221    0.222486   -2.120695 C.ar      1 <1>         0.100500 
      7 C           1.304341    1.324062   -2.437950 C.ar      1 <1>        -0.197200 
      8 C           2.237753    1.296227   -3.502565 C.ar      1 <1>        -0.137100 
      9 C           2.397437    0.157915   -4.253073 C.ar      1 <1>        -0.188400 
     10 C           1.626066   -1.002254   -3.973651 C.ar      1 <1>         0.136900 
     11 C           1.772873   -2.186759   -4.743248 C.ar      1 <1>        -0.193700 
     12 C           1.018776   -3.306528   -4.476062 C.ar      1 <1>        -0.131500 
     13 C           0.079113   -3.286102   -3.420217 C.ar      1 <1>        -0.132900 
     14 C          -0.086128   -2.153505   -2.652254 C.ar      1 <1>        -0.199000 
     15 C           0.677753   -0.978283   -2.896067 C.ar      1 <1>         0.074300 
     16 N           0.579542    1.511238    0.856838 N.ar      1 <1>        -0.532900 
     17 C           1.516827    0.411432    1.057587 C.3       1 <1>        -0.284400 
     18 C           0.944942   -0.692207    1.963336 C.2       1 <1>         0.419700 
     19 O          -0.235557   -0.675483    2.275276 O.2       1 <1>        -0.466600 
     20 C           1.863242   -1.775469    2.413725 C.ar      1 <1>         0.082500 
     21 C           1.341663   -2.788666    3.235506 C.ar      1 <1>        -0.154100 
     22 C           2.151497   -3.825296    3.678808 C.ar      1 <1>        -0.180500 
     23 C           3.507819   -3.889211    3.318902 C.ar      1 <1>         0.186600 
     24 C           4.388883   -5.003981    3.827799 C.3       1 <1>        -0.532600 
     25 C           4.022421   -2.879972    2.495001 C.ar      1 <1>        -0.185400 
     26 C           3.216670   -1.834718    2.048974 C.ar      1 <1>        -0.178300 
     27 C           0.700116    2.543330    1.794153 C.ar      1 <1>         0.791900 
     28 O           1.559671    2.557922    2.663128 O.2       1 <1>        -0.524400 
     29 N          -0.217743    3.558026    1.639285 N.ar      1 <1>        -0.701900 
     30 C          -1.262595    3.635751    0.712721 C.ar      1 <1>         0.605600 
     31 O          -2.004117    4.610626    0.708034 O.2       1 <1>        -0.516200 
     32 H          -1.308761    2.913280   -3.008585 H         1 <1>         0.145100 
     33 H          -2.996333    3.448352   -3.126552 H         1 <1>         0.144200 
     34 H          -1.834539    4.396214   -2.182818 H         1 <1>         0.166800 
     35 H          -3.330023    3.064176   -0.694813 H         1 <1>         0.174900 
     36 H          -2.837370    1.573805   -1.483646 H         1 <1>         0.139100 
     37 H          -0.379223   -0.636117   -0.359219 H         1 <1>         0.185000 
     38 H          -1.489370    0.175656   -1.416896 H         1 <1>         0.188800 
     39 H           1.194105    2.238986   -1.863847 H         1 <1>         0.142600 
     40 H           2.824067    2.185026   -3.718205 H         1 <1>         0.137000 
     41 H           3.111810    0.127800   -5.072134 H         1 <1>         0.133400 
     42 H           2.496168   -2.190698   -5.555374 H         1 <1>         0.133700 
     43 H           1.141113   -4.205276   -5.074279 H         1 <1>         0.134300 
     44 H          -0.517985   -4.170026   -3.213247 H         1 <1>         0.134800 
     45 H          -0.818182   -2.163567   -1.851566 H         1 <1>         0.138300 
     46 H           1.814636   -0.007187    0.092719 H         1 <1>         0.197400 
     47 H           2.405282    0.839376    1.524636 H         1 <1>         0.220700 
     48 H           0.293513   -2.738829    3.512214 H         1 <1>         0.165800 
     49 H           1.731010   -4.601591    4.314140 H         1 <1>         0.133900 
     50 H           5.291376   -5.113892    3.218474 H         1 <1>         0.161800 
     51 H           3.859226   -5.962971    3.830586 H         1 <1>         0.165600 
     52 H           4.710117   -4.809891    4.859809 H         1 <1>         0.175500 
     53 H           5.068443   -2.912096    2.200288 H         1 <1>         0.132900 
     54 H           3.654583   -1.070632    1.414004 H         1 <1>         0.142800 
     55 H          -0.140331    4.322297    2.300587 H         1 <1>         0.352500 
@<TRIPOS>BOND
     1   13   44 1    
     2    2   36 1    
     3   14   45 1    
     4   21   48 1    
     5    2   35 1    
     6   22   49 1    
     7   14   13 ar   
     8   13   12 ar   
     9    5   38 1    
    10   18   19 2    
    11    3    2 1    
    12    2    1 1    
    13   15   14 ar   
    14    5   37 1    
    15    1   33 1    
    16   21   22 ar   
    17   20   21 ar   
    18   22   23 ar   
    19   12   43 1    
    20    4    5 1    
    21    5    6 1    
    22   11   12 ar   
    23    4    3 ar   
    24    3   30 ar   
    25   24   51 1    
    26    1   32 1    
    27    1   34 1    
    28   18   20 1    
    29   17   18 1    
    30   16    4 ar   
    31   30   31 2    
    32    6   15 ar   
    33   15   10 ar   
    34   20   26 ar   
    35   30   29 ar   
    36   23   24 1    
    37   23   25 ar   
    38    6    7 ar   
    39   24   52 1    
    40   24   50 1    
    41   10   11 ar   
    42   11   42 1    
    43   16   17 1    
    44   16   27 ar   
    45   29   27 ar   
    46   29   55 1    
    47   17   46 1    
    48   17   47 1    
    49   10    9 ar   
    50   27   28 2    
    51   26   25 ar   
    52   26   54 1    
    53   25   53 1    
    54    7   39 1    
    55    7    8 ar   
    56    9    8 ar   
    57    9   41 1    
    58    8   40 1    
@<TRIPOS>SUBSTRUCTURE
     1 ****       44 TEMP              0 ****  ****    0 ROOT 
