#	Name:			HYP2005-MC-1233-4-5
#	Creating user name:	Administrator
#	Creation time:		Sun Jul 05 16:45:45 2020

#	Modifying user name:	Administrator
#	Modification time:	Sun Jul 05 16:48:40 2020

@<TRIPOS>MOLECULE
HYP2005-MC-1233-4-5
   49    52     1     0     0
SMALL
MULLIKEN_CHARGES
INVALID_CHARGES
Gaussian 16 #p B3LYP/6-31G* opt
@<TRIPOS>ATOM
      1 C          -2.495261    2.581541   -1.189931 C.3       1 <1>        -0.533100 
      2 C          -1.350221    2.492996   -0.209369 C.ar      1 <1>        -0.004900 
      3 C          -0.431285    1.486558   -0.123863 C.ar      1 <1>         0.361500 
      4 C          -0.353294    0.274380   -1.051528 C.3       1 <1>        -0.480000 
      5 C          -0.911115    0.358985   -2.461227 C.ar      1 <1>         0.130400 
      6 C          -1.971316   -0.450675   -2.817316 C.ar      1 <1>        -0.208700 
      7 C          -2.494581   -0.457493   -4.131203 C.ar      1 <1>        -0.130700 
      8 C          -1.940711    0.350182   -5.094580 C.ar      1 <1>        -0.188600 
      9 C          -0.832573    1.184817   -4.787869 C.ar      1 <1>         0.141900 
     10 C          -0.236175    2.009958   -5.778364 C.ar      1 <1>        -0.197000 
     11 C           0.847211    2.804270   -5.480296 C.ar      1 <1>        -0.129000 
     12 C           1.384335    2.802038   -4.172189 C.ar      1 <1>        -0.145700 
     13 C           0.829033    2.017569   -3.184342 C.ar      1 <1>        -0.206500 
     14 C          -0.296294    1.189640   -3.455378 C.ar      1 <1>         0.074100 
     15 N           0.529131    1.479302    0.909280 N.ar      1 <1>        -0.550700 
     16 C           1.460642    0.383393    1.153181 C.3       1 <1>        -0.276300 
     17 C           2.780360    0.531684    0.377511 C.2       1 <1>         0.426400 
     18 O           2.890373    1.382404   -0.491276 O.2       1 <1>        -0.457200 
     19 C           3.895549   -0.401657    0.700299 C.ar      1 <1>         0.083000 
     20 C           5.083921   -0.289264   -0.043103 C.ar      1 <1>        -0.154000 
     21 C           6.160149   -1.132031    0.201024 C.ar      1 <1>        -0.198300 
     22 C           6.036923   -2.095305    1.200028 C.ar      1 <1>         0.397000 
     23 F           7.073215   -2.915843    1.442196 F         1 <1>        -0.284200 
     24 C           4.877874   -2.237267    1.956352 C.ar      1 <1>        -0.202100 
     25 C           3.807836   -1.383809    1.701308 C.ar      1 <1>        -0.180200 
     26 C           0.701444    2.550848    1.791917 C.ar      1 <1>         0.792300 
     27 O           1.571844    2.568383    2.651412 O.2       1 <1>        -0.528500 
     28 N          -0.203560    3.570165    1.626310 N.ar      1 <1>        -0.699200 
     29 C          -1.262169    3.631783    0.715240 C.ar      1 <1>         0.597500 
     30 O          -2.015206    4.596558    0.730708 O.2       1 <1>        -0.511200 
     31 H          -3.020195    1.632003   -1.306267 H         1 <1>         0.155500 
     32 H          -2.166526    2.902806   -2.184176 H         1 <1>         0.178200 
     33 H          -3.196217    3.331406   -0.817740 H         1 <1>         0.189700 
     34 H          -0.836356   -0.572648   -0.543991 H         1 <1>         0.173500 
     35 H           0.702543    0.005313   -1.147818 H         1 <1>         0.183400 
     36 H          -2.425510   -1.094054   -2.066886 H         1 <1>         0.124100 
     37 H          -3.335320   -1.103122   -4.369357 H         1 <1>         0.132300 
     38 H          -2.336243    0.356800   -6.107502 H         1 <1>         0.132100 
     39 H          -0.653605    1.999586   -6.782525 H         1 <1>         0.130600 
     40 H           1.294046    3.430488   -6.247688 H         1 <1>         0.131900 
     41 H           2.245322    3.423632   -3.942173 H         1 <1>         0.137000 
     42 H           1.268920    2.030754   -2.192906 H         1 <1>         0.180000 
     43 H           1.678957    0.393908    2.222702 H         1 <1>         0.222000 
     44 H           0.994111   -0.576128    0.918145 H         1 <1>         0.189200 
     45 H           5.139381    0.473658   -0.812232 H         1 <1>         0.178100 
     46 H           7.084867   -1.058771   -0.361543 H         1 <1>         0.161400 
     47 H           4.829779   -2.999805    2.726268 H         1 <1>         0.159500 
     48 H           2.906895   -1.490906    2.296606 H         1 <1>         0.150300 
     49 H          -0.105358    4.354248    2.260837 H         1 <1>         0.353400 
@<TRIPOS>BOND
     1   11   40 1    
     2   12   41 1    
     3   12   11 ar   
     4   10   11 ar   
     5   13   12 ar   
     6   20   45 1    
     7   21   46 1    
     8   10   39 1    
     9    9   10 ar   
    10   28   49 1    
    11   13   42 1    
    12   14   13 ar   
    13   17   18 2    
    14   20   21 ar   
    15   19   20 ar   
    16   21   22 ar   
    17   29   30 2    
    18   29   28 ar   
    19   26   28 ar   
    20   26   27 2    
    21    2   29 ar   
    22   15   26 ar   
    23   17   19 1    
    24   16   17 1    
    25   19   25 ar   
    26   14    9 ar   
    27    9    8 ar   
    28    1   32 1    
    29    5   14 ar   
    30   22   23 1    
    31   24   22 ar   
    32    3    2 ar   
    33    2    1 1    
    34    3   15 ar   
    35   15   16 1    
    36    1   33 1    
    37    4    3 1    
    38    1   31 1    
    39   16   43 1    
    40   16   44 1    
    41    4   35 1    
    42   25   24 ar   
    43   25   48 1    
    44    8   38 1    
    45   24   47 1    
    46    8    7 ar   
    47    5    4 1    
    48    5    6 ar   
    49    4   34 1    
    50    7    6 ar   
    51    7   37 1    
    52    6   36 1    
@<TRIPOS>SUBSTRUCTURE
     1 ****       40 TEMP              0 ****  ****    0 ROOT 
