#	Name:			HYP2005-MC-1233-4-23
#	Creating user name:	Administrator
#	Creation time:		Sun Jul 05 16:45:44 2020

#	Modifying user name:	Administrator
#	Modification time:	Sun Jul 05 16:48:40 2020

@<TRIPOS>MOLECULE
HYP2005-MC-1233-4-23
   55    58     1     0     0
SMALL
MULLIKEN_CHARGES
INVALID_CHARGES
Gaussian 16 #p B3LYP/6-31G* opt
@<TRIPOS>ATOM
      1 C          -3.829196    2.568422   -0.744914 C.3       1 <1>        -0.454800 
      2 C          -2.398150    2.582800   -1.318931 C.3       1 <1>        -0.143400 
      3 C          -2.173313    3.796959   -2.245028 C.3       1 <1>        -0.456200 
      4 C          -1.336611    2.506578   -0.227924 C.ar      1 <1>         0.006900 
      5 C          -0.454671    1.469922   -0.097853 C.ar      1 <1>         0.338600 
      6 C          -0.498103    0.245841   -1.010797 C.3       1 <1>        -0.460500 
      7 C          -1.753768   -0.626834   -1.019860 C.ar      1 <1>         0.134000 
      8 C          -2.312663   -0.933680   -2.247043 C.ar      1 <1>        -0.206000 
      9 C          -3.420431   -1.801877   -2.375085 C.ar      1 <1>        -0.128900 
     10 C          -3.974056   -2.375397   -1.257231 C.ar      1 <1>        -0.190700 
     11 C          -3.437022   -2.105985    0.029072 C.ar      1 <1>         0.143000 
     12 C          -3.992635   -2.708246    1.189844 C.ar      1 <1>        -0.194300 
     13 C          -3.470134   -2.465515    2.438696 C.ar      1 <1>        -0.131100 
     14 C          -2.361886   -1.599018    2.576999 C.ar      1 <1>        -0.142000 
     15 C          -1.801961   -0.995641    1.472169 C.ar      1 <1>        -0.199000 
     16 C          -2.310397   -1.221856    0.162194 C.ar      1 <1>         0.074900 
     17 N           0.550867    1.481976    0.891279 N.ar      1 <1>        -0.550100 
     18 C           1.639273    0.511493    0.952857 C.3       1 <1>        -0.300200 
     19 C           2.645106    0.670255   -0.196490 C.2       1 <1>         0.420800 
     20 O           2.446453    1.482761   -1.084238 O.2       1 <1>        -0.456800 
     21 C           3.855320   -0.203969   -0.192343 C.ar      1 <1>         0.081300 
     22 C           4.748592   -0.095873   -1.270555 C.ar      1 <1>        -0.150600 
     23 C           5.893124   -0.881133   -1.330553 C.ar      1 <1>        -0.131700 
     24 C           6.148437   -1.786720   -0.297433 C.ar      1 <1>        -0.058100 
     25 CL          7.588562   -2.782902   -0.363935 Cl        1 <1>         0.001600 
     26 C           5.279674   -1.912867    0.786936 C.ar      1 <1>        -0.133500 
     27 C           4.135930   -1.119257    0.834033 C.ar      1 <1>        -0.177200 
     28 C           0.699581    2.546867    1.793935 C.ar      1 <1>         0.792000 
     29 O           1.587309    2.594197    2.635017 O.2       1 <1>        -0.524900 
     30 N          -0.249312    3.528812    1.667266 N.ar      1 <1>        -0.696900 
     31 C          -1.263328    3.632273    0.706538 C.ar      1 <1>         0.605600 
     32 O          -1.993858    4.615966    0.723377 O.2       1 <1>        -0.512900 
     33 H          -4.006936    3.447166   -0.120426 H         1 <1>         0.179100 
     34 H          -4.559500    2.571189   -1.562833 H         1 <1>         0.134800 
     35 H          -4.001683    1.669816   -0.142402 H         1 <1>         0.145200 
     36 H          -2.300756    1.690914   -1.939908 H         1 <1>         0.130300 
     37 H          -2.901010    3.776736   -3.065304 H         1 <1>         0.135300 
     38 H          -2.294249    4.735494   -1.699737 H         1 <1>         0.183300 
     39 H          -1.168930    3.778509   -2.684551 H         1 <1>         0.138000 
     40 H           0.352250   -0.404058   -0.802442 H         1 <1>         0.168400 
     41 H          -0.328443    0.601131   -2.031965 H         1 <1>         0.194600 
     42 H          -1.887460   -0.494201   -3.146429 H         1 <1>         0.131000 
     43 H          -3.826701   -2.008214   -3.361220 H         1 <1>         0.135500 
     44 H          -4.826463   -3.045214   -1.339352 H         1 <1>         0.134200 
     45 H          -4.845470   -3.371992    1.069159 H         1 <1>         0.134000 
     46 H          -3.905553   -2.933822    3.316983 H         1 <1>         0.134900 
     47 H          -1.951496   -1.402118    3.563806 H         1 <1>         0.134500 
     48 H          -0.966764   -0.321511    1.614618 H         1 <1>         0.142800 
     49 H           2.148076    0.702116    1.900866 H         1 <1>         0.237300 
     50 H           1.257266   -0.513415    0.990924 H         1 <1>         0.187900 
     51 H           4.524869    0.617441   -2.056963 H         1 <1>         0.177600 
     52 H           6.583489   -0.797947   -2.163025 H         1 <1>         0.167800 
     53 H           5.498692   -2.618951    1.580423 H         1 <1>         0.166700 
     54 H           3.471199   -1.221287    1.685846 H         1 <1>         0.154200 
     55 H          -0.167216    4.304248    2.315073 H         1 <1>         0.353600 
@<TRIPOS>BOND
     1    9   43 1    
     2    3   37 1    
     3    8   42 1    
     4    3   39 1    
     5    3   38 1    
     6    2    3 1    
     7    8    9 ar   
     8    9   10 ar   
     9    7    8 ar   
    10   23   52 1    
    11   22   51 1    
    12    6   41 1    
    13    2   36 1    
    14    1   34 1    
    15    2    1 1    
    16    4    2 1    
    17   22   23 ar   
    18   23   24 ar   
    19   10   44 1    
    20   21   22 ar   
    21   11   10 ar   
    22   19   20 2    
    23    6    7 1    
    24    6   40 1    
    25    5    6 1    
    26    7   16 ar   
    27    1   33 1    
    28    1   35 1    
    29   24   25 1    
    30    5    4 ar   
    31    4   31 ar   
    32   26   24 ar   
    33   19   21 1    
    34   18   19 1    
    35   21   27 ar   
    36   17    5 ar   
    37   16   11 ar   
    38   11   12 ar   
    39   16   15 ar   
    40   31   32 2    
    41   31   30 ar   
    42   27   26 ar   
    43   26   53 1    
    44   17   18 1    
    45   17   28 ar   
    46   27   54 1    
    47   18   50 1    
    48   18   49 1    
    49   12   45 1    
    50   12   13 ar   
    51   15   48 1    
    52   15   14 ar   
    53   30   28 ar   
    54   30   55 1    
    55   28   29 2    
    56   13   14 ar   
    57   13   46 1    
    58   14   47 1    
@<TRIPOS>SUBSTRUCTURE
     1 ****       37 TEMP              0 ****  ****    0 ROOT 
