#	Name:			HYP2005-MC-1233-4-35
#	Creating user name:	Administrator
#	Creation time:		Sun Jul 05 16:45:44 2020

#	Modifying user name:	Administrator
#	Modification time:	Sun Jul 05 16:48:40 2020

@<TRIPOS>MOLECULE
HYP2005-MC-1233-4-35
   50    53     1     0     0
SMALL
MULLIKEN_CHARGES
INVALID_CHARGES
Gaussian 16 #p B3LYP/6-31G* opt
@<TRIPOS>ATOM
      1 C          -3.655153    2.561864   -0.759453 C.3       1 <1>        -0.226600 
      2 O          -2.282750    2.482998   -1.179355 O.3       1 <1>        -0.524500 
      3 C          -1.347875    2.489388   -0.179686 C.ar      1 <1>         0.201100 
      4 C          -0.452545    1.464092   -0.083484 C.ar      1 <1>         0.343400 
      5 C          -0.541077    0.271832   -1.001639 C.3       1 <1>        -0.430500 
      6 C           0.490968    0.217634   -2.125689 C.ar      1 <1>         0.095900 
      7 C           1.182136    1.347196   -2.517212 C.ar      1 <1>        -0.190300 
      8 C           2.122023    1.313946   -3.574623 C.ar      1 <1>        -0.135100 
      9 C           2.368810    0.140774   -4.244083 C.ar      1 <1>        -0.189700 
     10 C           1.676591   -1.048407   -3.890630 C.ar      1 <1>         0.137700 
     11 C           1.911092   -2.267887   -4.580020 C.ar      1 <1>        -0.194100 
     12 C           1.229857   -3.416105   -4.246970 C.ar      1 <1>        -0.132000 
     13 C           0.276809   -3.389646   -3.203138 C.ar      1 <1>        -0.133200 
     14 C           0.028588   -2.224144   -2.510976 C.ar      1 <1>        -0.199700 
     15 C           0.718041   -1.018432   -2.821358 C.ar      1 <1>         0.072400 
     16 N           0.587038    1.511063    0.849524 N.ar      1 <1>        -0.543800 
     17 C           1.521786    0.408478    1.034758 C.3       1 <1>        -0.283000 
     18 C           0.953292   -0.693285    1.944396 C.2       1 <1>         0.421200 
     19 O          -0.217639   -0.659199    2.286663 O.2       1 <1>        -0.463700 
     20 C           1.864298   -1.798878    2.363906 C.ar      1 <1>         0.083200 
     21 C           3.205935   -1.875237    1.957426 C.ar      1 <1>        -0.179200 
     22 C           4.007335   -2.936804    2.375563 C.ar      1 <1>        -0.133300 
     23 C           3.477987   -3.927772    3.204220 C.ar      1 <1>        -0.116200 
     24 C           2.143082   -3.858407    3.614986 C.ar      1 <1>        -0.132700 
     25 C           1.341268   -2.802082    3.196407 C.ar      1 <1>        -0.154000 
     26 C           0.700705    2.537939    1.790498 C.ar      1 <1>         0.791700 
     27 O           1.562286    2.557962    2.656915 O.2       1 <1>        -0.522600 
     28 N          -0.232163    3.546542    1.646253 N.ar      1 <1>        -0.711900 
     29 C          -1.270873    3.645970    0.712751 C.ar      1 <1>         0.620300 
     30 O          -2.006596    4.623635    0.698864 O.2       1 <1>        -0.509700 
     31 H          -4.245781    2.494740   -1.675472 H         1 <1>         0.160700 
     32 H          -3.851167    3.508315   -0.252325 H         1 <1>         0.193200 
     33 H          -3.906356    1.721203   -0.099456 H         1 <1>         0.140900 
     34 H          -0.484464   -0.632964   -0.388827 H         1 <1>         0.177700 
     35 H          -1.542955    0.287013   -1.441050 H         1 <1>         0.202700 
     36 H           0.999479    2.289246   -2.008948 H         1 <1>         0.140400 
     37 H           2.644802    2.225641   -3.850097 H         1 <1>         0.136200 
     38 H           3.090714    0.105221   -5.056386 H         1 <1>         0.132200 
     39 H           2.642079   -2.275055   -5.385360 H         1 <1>         0.132800 
     40 H           1.418385   -4.341105   -4.784748 H         1 <1>         0.133200 
     41 H          -0.265724   -4.295457   -2.946137 H         1 <1>         0.133500 
     42 H          -0.716436   -2.231318   -1.722376 H         1 <1>         0.137000 
     43 H           1.799078   -0.008680    0.062898 H         1 <1>         0.201400 
     44 H           2.419975    0.829459    1.490093 H         1 <1>         0.220700 
     45 H           3.634944   -1.111965    1.315806 H         1 <1>         0.145400 
     46 H           5.044304   -2.988862    2.056251 H         1 <1>         0.142300 
     47 H           4.105009   -4.752981    3.531003 H         1 <1>         0.142700 
     48 H           1.731573   -4.628729    4.261306 H         1 <1>         0.143000 
     49 H           0.302874   -2.727234    3.502072 H         1 <1>         0.167300 
     50 H          -0.147689    4.312109    2.305683 H         1 <1>         0.355800 
@<TRIPOS>BOND
     1    8   37 1    
     2    9   38 1    
     3    8    9 ar   
     4    7    8 ar   
     5   22   46 1    
     6   10    9 ar   
     7   21   45 1    
     8   26   27 2    
     9   17   44 1    
    10    7   36 1    
    11    6    7 ar   
    12   28   50 1    
    13   26   28 ar   
    14   16   26 ar   
    15   21   22 ar   
    16   22   23 ar   
    17   11   39 1    
    18   20   21 ar   
    19   17   43 1    
    20   29   28 ar   
    21   16   17 1    
    22   17   18 1    
    23   10   11 ar   
    24   15   10 ar   
    25    4   16 ar   
    26   11   12 ar   
    27    6   15 ar   
    28    5    6 1    
    29   29   30 2    
    30    3   29 ar   
    31   23   47 1    
    32   23   24 ar   
    33   18   20 1    
    34   20   25 ar   
    35   15   14 ar   
    36    4    3 ar   
    37    4    5 1    
    38   18   19 2    
    39    3    2 1    
    40    5   34 1    
    41    5   35 1    
    42   12   40 1    
    43   12   13 ar   
    44   24   25 ar   
    45   24   48 1    
    46    2    1 1    
    47   25   49 1    
    48   14   13 ar   
    49   14   42 1    
    50   13   41 1    
    51    1   32 1    
    52    1   31 1    
    53    1   33 1    
@<TRIPOS>SUBSTRUCTURE
     1 ****       46 TEMP              0 ****  ****    0 ROOT 
