#	Name:			HYP2005-MC-1233-4-27
#	Creating user name:	Administrator
#	Creation time:		Sun Jul 05 16:45:44 2020

#	Modifying user name:	Administrator
#	Modification time:	Sun Jul 05 16:48:40 2020

@<TRIPOS>MOLECULE
HYP2005-MC-1233-4-27
   52    54     1     0     0
SMALL
MULLIKEN_CHARGES
INVALID_CHARGES
Gaussian 16 #p B3LYP/6-31G* opt
@<TRIPOS>ATOM
      1 C           2.515577   -0.734541    5.345455 C.3       1 <1>        -0.460600 
      2 C           2.145613   -1.656460    4.194534 C.3       1 <1>        -0.049600 
      3 O           2.250096   -0.965000    2.921918 O.3       1 <1>        -0.460400 
      4 C           1.177832   -0.257654    2.531645 C.2       1 <1>         0.666300 
      5 O           0.130635   -0.180232    3.132622 O.2       1 <1>        -0.480700 
      6 C           1.464657    0.388559    1.173900 C.3       1 <1>        -0.253400 
      7 N           0.543085    1.487392    0.899484 N.ar      1 <1>        -0.535800 
      8 C          -0.438234    1.479236   -0.106286 C.ar      1 <1>         0.336900 
      9 C          -0.369752    0.336166   -1.097774 C.3       1 <1>        -0.467400 
     10 C          -0.899611   -1.022180   -0.647828 C.ar      1 <1>         0.100400 
     11 C          -1.557261   -1.184155    0.554271 C.ar      1 <1>        -0.196700 
     12 C          -2.063117   -2.444548    0.955350 C.ar      1 <1>        -0.140100 
     13 C          -1.914439   -3.541766    0.143906 C.ar      1 <1>        -0.187400 
     14 C          -1.251965   -3.426953   -1.108194 C.ar      1 <1>         0.135800 
     15 C          -1.091981   -4.549634   -1.962833 C.ar      1 <1>        -0.193500 
     16 C          -0.455285   -4.434551   -3.177737 C.ar      1 <1>        -0.132200 
     17 C           0.049800   -3.180544   -3.590211 C.ar      1 <1>        -0.132800 
     18 C          -0.087171   -2.071437   -2.783041 C.ar      1 <1>        -0.199600 
     19 C          -0.735586   -2.152325   -1.519295 C.ar      1 <1>         0.078300 
     20 C          -1.345465    2.496469   -0.218795 C.ar      1 <1>        -0.021600 
     21 C          -2.450555    2.641583   -1.266617 C.3       1 <1>        -0.159600 
     22 C          -3.442907    1.466873   -1.352152 C.3       1 <1>        -0.451500 
     23 C          -1.917863    3.064390   -2.651855 C.3       1 <1>        -0.446600 
     24 C          -1.265323    3.631262    0.715803 C.ar      1 <1>         0.597000 
     25 O          -2.008438    4.605158    0.724061 O.2       1 <1>        -0.512400 
     26 N          -0.220233    3.560697    1.640009 N.ar      1 <1>        -0.705900 
     27 C           0.695794    2.548121    1.796419 C.ar      1 <1>         0.803800 
     28 O           1.578791    2.568257    2.640939 O.2       1 <1>        -0.524800 
     29 H           1.811158    0.098894    5.412941 H         1 <1>         0.186800 
     30 H           3.524522   -0.331559    5.212630 H         1 <1>         0.162900 
     31 H           2.486343   -1.291301    6.289307 H         1 <1>         0.149600 
     32 H           2.843989   -2.491782    4.102975 H         1 <1>         0.155600 
     33 H           1.128787   -2.041783    4.299847 H         1 <1>         0.171700 
     34 H           2.492528    0.756029    1.173658 H         1 <1>         0.210000 
     35 H           1.371745   -0.383424    0.412568 H         1 <1>         0.204100 
     36 H          -0.911201    0.643398   -1.993240 H         1 <1>         0.192200 
     37 H           0.674259    0.235920   -1.424253 H         1 <1>         0.172300 
     38 H          -1.676766   -0.340598    1.225029 H         1 <1>         0.162500 
     39 H          -2.566450   -2.530577    1.913956 H         1 <1>         0.141100 
     40 H          -2.300311   -4.512675    0.445132 H         1 <1>         0.132300 
     41 H          -1.487100   -5.508957   -1.637113 H         1 <1>         0.133600 
     42 H          -0.341245   -5.302467   -3.821397 H         1 <1>         0.133800 
     43 H           0.548347   -3.090436   -4.551439 H         1 <1>         0.133000 
     44 H           0.304673   -1.120047   -3.128144 H         1 <1>         0.129300 
     45 H          -3.026979    3.496662   -0.901116 H         1 <1>         0.183500 
     46 H          -3.016308    0.559604   -1.790842 H         1 <1>         0.146800 
     47 H          -3.827775    1.205299   -0.360715 H         1 <1>         0.153300 
     48 H          -4.296459    1.758267   -1.975759 H         1 <1>         0.144800 
     49 H          -1.289727    3.957781   -2.570209 H         1 <1>         0.155600 
     50 H          -1.325116    2.282111   -3.140999 H         1 <1>         0.136900 
     51 H          -2.755473    3.302599   -3.318032 H         1 <1>         0.148000 
     52 H          -0.135907    4.335783    2.287717 H         1 <1>         0.353900 
@<TRIPOS>BOND
     1   17   43 1    
     2    6   34 1    
     3   18   44 1    
     4    9   37 1    
     5   18   17 ar   
     6   17   16 ar   
     7   19   18 ar   
     8   23   49 1    
     9    6   35 1    
    10   23   50 1    
    11    6    7 1    
    12    4    6 1    
    13   16   42 1    
    14   27   28 2    
    15   16   15 ar   
    16    9   36 1    
    17    1   30 1    
    18    8    9 1    
    19    9   10 1    
    20    7   27 ar   
    21    7    8 ar   
    22    3    4 1    
    23    2    3 1    
    24   23   51 1    
    25   21   23 1    
    26   27   26 ar   
    27    8   20 ar   
    28    2   32 1    
    29   10   19 ar   
    30   19   14 ar   
    31    4    5 2    
    32   26   52 1    
    33   26   24 ar   
    34   20   24 ar   
    35   20   21 1    
    36    2    1 1    
    37    2   33 1    
    38   10   11 ar   
    39    1   29 1    
    40    1   31 1    
    41   15   14 ar   
    42   15   41 1    
    43   24   25 2    
    44   21   45 1    
    45   21   22 1    
    46   14   13 ar   
    47   22   46 1    
    48   11   38 1    
    49   11   12 ar   
    50   22   48 1    
    51   22   47 1    
    52   13   12 ar   
    53   13   40 1    
    54   12   39 1    
@<TRIPOS>SUBSTRUCTURE
     1 ****       43 TEMP              0 ****  ****    0 ROOT 
