#	Name:			HYP2005-MC-1233-4-8
#	Creating user name:	Administrator
#	Creation time:		Sun Jul 05 16:45:45 2020

#	Modifying user name:	Administrator
#	Modification time:	Sun Jul 05 16:48:40 2020

@<TRIPOS>MOLECULE
HYP2005-MC-1233-4-8
   49    51     1     0     0
SMALL
MULLIKEN_CHARGES
INVALID_CHARGES
Gaussian 16 #p B3LYP/6-31G* opt
@<TRIPOS>ATOM
      1 C          -2.415491    2.561649   -1.267440 C.3       1 <1>        -0.543300 
      2 C          -1.335075    2.505110   -0.215124 C.ar      1 <1>         0.002300 
      3 C          -0.431882    1.489419   -0.106595 C.ar      1 <1>         0.337800 
      4 C          -0.419158    0.337174   -1.084215 C.3       1 <1>        -0.454200 
      5 C          -1.089183   -0.951921   -0.615001 C.ar      1 <1>         0.101500 
      6 C          -1.859314   -0.991392    0.530319 C.ar      1 <1>        -0.198300 
      7 C          -2.496438   -2.182156    0.955923 C.ar      1 <1>        -0.135200 
      8 C          -2.360777   -3.337411    0.226869 C.ar      1 <1>        -0.187600 
      9 C          -1.586415   -3.350348   -0.964627 C.ar      1 <1>         0.136800 
     10 C          -1.441497   -4.534024   -1.735786 C.ar      1 <1>        -0.193500 
     11 C          -0.699183   -4.541328   -2.894741 C.ar      1 <1>        -0.131600 
     12 C          -0.067643   -3.354828   -3.332781 C.ar      1 <1>        -0.133400 
     13 C          -0.185200   -2.189791   -2.605695 C.ar      1 <1>        -0.200700 
     14 C          -0.940532   -2.144907   -1.401002 C.ar      1 <1>         0.074700 
     15 N           0.529891    1.471749    0.909699 N.ar      1 <1>        -0.529700 
     16 C           1.505586    0.400036    1.067373 C.3       1 <1>        -0.280500 
     17 C           2.759761    0.620827    0.223045 C.2       1 <1>         0.652200 
     18 O           2.825713    1.371455   -0.726720 O.2       1 <1>        -0.478400 
     19 O           3.748585   -0.168953    0.665070 O.3       1 <1>        -0.464600 
     20 C           5.024021   -0.123453   -0.053977 C.3       1 <1>         0.123200 
     21 C           5.853556    1.041605    0.473062 C.3       1 <1>        -0.458100 
     22 C           5.669824   -1.484434    0.160885 C.3       1 <1>        -0.453200 
     23 C           0.700942    2.543683    1.793536 C.ar      1 <1>         0.788800 
     24 O           1.589859    2.576399    2.631338 O.2       1 <1>        -0.522300 
     25 N          -0.230516    3.548237    1.649716 N.ar      1 <1>        -0.702200 
     26 C          -1.268372    3.636118    0.711911 C.ar      1 <1>         0.598400 
     27 O          -2.014869    4.605876    0.717154 O.2       1 <1>        -0.512900 
     28 H          -2.009266    2.777505   -2.264388 H         1 <1>         0.164400 
     29 H          -2.981700    1.626496   -1.330384 H         1 <1>         0.160800 
     30 H          -3.105872    3.368679   -1.014261 H         1 <1>         0.197600 
     31 H           0.619676    0.143894   -1.369966 H         1 <1>         0.186100 
     32 H          -0.907932    0.676299   -2.003167 H         1 <1>         0.190600 
     33 H          -1.987255   -0.089433    1.121692 H         1 <1>         0.140600 
     34 H          -3.092335   -2.170795    1.864195 H         1 <1>         0.137600 
     35 H          -2.845249   -4.256663    0.546967 H         1 <1>         0.134100 
     36 H          -1.934443   -5.440279   -1.391823 H         1 <1>         0.134400 
     37 H          -0.598676   -5.454065   -3.475403 H         1 <1>         0.134800 
     38 H           0.513655   -3.361614   -4.250827 H         1 <1>         0.134500 
     39 H           0.304271   -1.291847   -2.968273 H         1 <1>         0.138200 
     40 H           1.793015    0.359349    2.117737 H         1 <1>         0.227000 
     41 H           1.054830   -0.559670    0.804885 H         1 <1>         0.206600 
     42 H           4.791316    0.034201   -1.111040 H         1 <1>         0.162000 
     43 H           5.338782    1.990950    0.302392 H         1 <1>         0.179700 
     44 H           6.818989    1.076720   -0.044175 H         1 <1>         0.150200 
     45 H           6.040090    0.927760    1.546416 H         1 <1>         0.158700 
     46 H           5.024954   -2.286953   -0.210951 H         1 <1>         0.158500 
     47 H           5.862096   -1.659613    1.224884 H         1 <1>         0.160400 
     48 H           6.624429   -1.532730   -0.374046 H         1 <1>         0.153100 
     49 H          -0.130511    4.330152    2.286883 H         1 <1>         0.353600 
@<TRIPOS>BOND
     1    7   34 1    
     2    8   35 1    
     3    7    8 ar   
     4    6    7 ar   
     5    9    8 ar   
     6   16   40 1    
     7   23   24 2    
     8    6   33 1    
     9   22   47 1    
    10    5    6 ar   
    11   10   36 1    
    12   16   41 1    
    13   15   16 1    
    14   16   17 1    
    15   15   23 ar   
    16   23   25 ar   
    17   21   45 1    
    18   25   49 1    
    19    9   10 ar   
    20   14    9 ar   
    21   17   19 1    
    22   19   20 1    
    23    3   15 ar   
    24   26   25 ar   
    25   10   11 ar   
    26   22   46 1    
    27   22   48 1    
    28   20   22 1    
    29    5   14 ar   
    30    4    5 1    
    31   17   18 2    
    32   14   13 ar   
    33   20   21 1    
    34   20   42 1    
    35   21   43 1    
    36   21   44 1    
    37   26   27 2    
    38    2   26 ar   
    39    3    2 ar   
    40    3    4 1    
    41   11   37 1    
    42   11   12 ar   
    43    2    1 1    
    44    4   31 1    
    45    4   32 1    
    46    1   29 1    
    47   13   12 ar   
    48   13   39 1    
    49   12   38 1    
    50    1   30 1    
    51    1   28 1    
@<TRIPOS>SUBSTRUCTURE
     1 ****       47 TEMP              0 ****  ****    0 ROOT 
