#	Name:			HYP2005-MC-1233-4-3
#	Creating user name:	Administrator
#	Creation time:		Sun Jul 05 16:45:44 2020

#	Modifying user name:	Administrator
#	Modification time:	Sun Jul 05 16:48:40 2020

@<TRIPOS>MOLECULE
HYP2005-MC-1233-4-3
   53    56     1     0     0
SMALL
MULLIKEN_CHARGES
INVALID_CHARGES
Gaussian 16 #p B3LYP/6-31G* opt
@<TRIPOS>ATOM
      1 C           9.055848   -0.183108    1.893883 C.3       1 <1>        -0.221100 
      2 O           7.894259    0.109210    2.660758 O.3       1 <1>        -0.497700 
      3 C           6.703350    0.227885    2.021366 C.ar      1 <1>         0.390700 
      4 C           6.523185    0.067950    0.637470 C.ar      1 <1>        -0.198300 
      5 C           5.252880    0.215264    0.094123 C.ar      1 <1>        -0.158100 
      6 C           4.139649    0.499626    0.901773 C.ar      1 <1>         0.064200 
      7 C           2.820516    0.633829    0.243969 C.2       1 <1>         0.403000 
      8 O           2.717200    0.848474   -0.958701 O.2       1 <1>        -0.470600 
      9 C           1.531973    0.406954    1.062892 C.3       1 <1>        -0.266300 
     10 N           0.549673    1.484249    0.891253 N.ar      1 <1>        -0.530900 
     11 C          -0.438673    1.482554   -0.101410 C.ar      1 <1>         0.331300 
     12 C          -0.455935    0.311436   -1.055541 C.3       1 <1>        -0.468500 
     13 C          -1.123556   -0.960518   -0.538578 C.ar      1 <1>         0.103000 
     14 C          -1.884703   -0.963529    0.613609 C.ar      1 <1>        -0.199000 
     15 C          -2.521597   -2.138767    1.080502 C.ar      1 <1>        -0.135300 
     16 C          -2.395961   -3.316194    0.385864 C.ar      1 <1>        -0.188700 
     17 C          -1.629958   -3.367951   -0.809973 C.ar      1 <1>         0.137700 
     18 C          -1.494292   -4.575081   -1.545756 C.ar      1 <1>        -0.194200 
     19 C          -0.758222   -4.620548   -2.707743 C.ar      1 <1>        -0.131500 
     20 C          -0.122707   -3.450997   -3.184070 C.ar      1 <1>        -0.134000 
     21 C          -0.231689   -2.263797   -2.492430 C.ar      1 <1>        -0.198400 
     22 C          -0.982288   -2.178768   -1.286800 C.ar      1 <1>         0.071400 
     23 C          -1.344618    2.498088   -0.203964 C.ar      1 <1>         0.004900 
     24 C          -2.447718    2.537599   -1.233665 C.3       1 <1>        -0.542900 
     25 C          -1.267411    3.637280    0.710204 C.ar      1 <1>         0.595700 
     26 O          -2.011265    4.609354    0.716603 O.2       1 <1>        -0.513800 
     27 N          -0.224653    3.551499    1.643670 N.ar      1 <1>        -0.701500 
     28 C           0.700461    2.543148    1.789800 C.ar      1 <1>         0.786800 
     29 O           1.576463    2.570418    2.645479 O.2       1 <1>        -0.526400 
     30 C           4.338392    0.668456    2.287203 C.ar      1 <1>        -0.178600 
     31 C           5.603355    0.539405    2.837728 C.ar      1 <1>        -0.182700 
     32 H           8.967046   -1.150863    1.384372 H         1 <1>         0.158400 
     33 H           9.879568   -0.224394    2.608033 H         1 <1>         0.177200 
     34 H           9.254938    0.601550    1.153307 H         1 <1>         0.160300 
     35 H           7.359403   -0.166534   -0.010914 H         1 <1>         0.140400 
     36 H           5.100157    0.103701   -0.974654 H         1 <1>         0.161400 
     37 H           1.727269    0.314288    2.127871 H         1 <1>         0.194100 
     38 H           1.091398   -0.533190    0.725158 H         1 <1>         0.200800 
     39 H          -0.968243    0.633088   -1.968034 H         1 <1>         0.186100 
     40 H           0.577133    0.112915   -1.356409 H         1 <1>         0.213000 
     41 H          -2.006434   -0.043449    1.177764 H         1 <1>         0.137000 
     42 H          -3.110545   -2.097808    1.992653 H         1 <1>         0.135200 
     43 H          -2.881549   -4.223389    0.736998 H         1 <1>         0.132200 
     44 H          -1.988893   -5.468510   -1.171590 H         1 <1>         0.132500 
     45 H          -0.664280   -5.551050   -3.260829 H         1 <1>         0.133000 
     46 H           0.456443   -3.488690   -4.102705 H         1 <1>         0.133700 
     47 H           0.264152   -1.380528   -2.880704 H         1 <1>         0.143200 
     48 H          -3.025954    1.607968   -1.256101 H         1 <1>         0.162000 
     49 H          -3.122770    3.360296   -0.989556 H         1 <1>         0.196500 
     50 H          -2.060782    2.717263   -2.245315 H         1 <1>         0.164100 
     51 H          -0.129933    4.328122    2.288112 H         1 <1>         0.353300 
     52 H           3.512637    0.964567    2.924787 H         1 <1>         0.185900 
     53 H           5.772674    0.685275    3.899679 H         1 <1>         0.149500 
@<TRIPOS>BOND
     1   20   46 1    
     2   24   50 1    
     3   21   47 1    
     4    5   36 1    
     5   12   39 1    
     6    7    8 2    
     7   21   20 ar   
     8   20   19 ar   
     9    4   35 1    
    10   24   49 1    
    11   24   48 1    
    12   23   24 1    
    13   12   40 1    
    14   22   21 ar   
    15    1   34 1    
    16    4    5 ar   
    17    5    6 ar   
    18   11   12 1    
    19   12   13 1    
    20    3    4 ar   
    21   19   45 1    
    22   11   23 ar   
    23   23   25 ar   
    24    6    7 1    
    25    7    9 1    
    26   19   18 ar   
    27   25   26 2    
    28   10   11 ar   
    29   27   25 ar   
    30    1   32 1    
    31    6   30 ar   
    32    1   33 1    
    33    2    1 1    
    34   13   22 ar   
    35   22   17 ar   
    36   13   14 ar   
    37    9   10 1    
    38   10   28 ar   
    39   27   51 1    
    40   28   27 ar   
    41    3    2 1    
    42    3   31 ar   
    43    9   38 1    
    44    9   37 1    
    45   28   29 2    
    46   18   17 ar   
    47   18   44 1    
    48   17   16 ar   
    49   30   31 ar   
    50   30   52 1    
    51   31   53 1    
    52   14   41 1    
    53   14   15 ar   
    54   16   15 ar   
    55   16   43 1    
    56   15   42 1    
@<TRIPOS>SUBSTRUCTURE
     1 ****       46 TEMP              0 ****  ****    0 ROOT 
