#	Name:			HYP2005-MC-1233-4-20
#	Creating user name:	Administrator
#	Creation time:		Sun Jul 05 16:45:43 2020

#	Modifying user name:	Administrator
#	Modification time:	Sun Jul 05 16:48:40 2020

@<TRIPOS>MOLECULE
HYP2005-MC-1233-4-20
   55    58     1     0     0
SMALL
MULLIKEN_CHARGES
INVALID_CHARGES
Gaussian 16 #p B3LYP/6-31G* opt
@<TRIPOS>ATOM
      1 C          -2.173454    3.798314   -2.244043 C.3       1 <1>        -0.456200 
      2 C          -2.397840    2.583305   -1.319010 C.3       1 <1>        -0.142900 
      3 C          -3.829111    2.567814   -0.745459 C.3       1 <1>        -0.454700 
      4 C          -1.336474    2.506857   -0.227802 C.ar      1 <1>         0.006300 
      5 C          -0.454655    1.469855   -0.097208 C.ar      1 <1>         0.339300 
      6 C          -0.500593    0.244206   -1.008211 C.3       1 <1>        -0.460600 
      7 C          -1.758773   -0.624623   -1.016509 C.ar      1 <1>         0.134000 
      8 C          -2.318659   -0.931177   -2.243296 C.ar      1 <1>        -0.206000 
      9 C          -3.429587   -1.795576   -2.370204 C.ar      1 <1>        -0.128900 
     10 C          -3.985651   -2.365493   -1.251717 C.ar      1 <1>        -0.190900 
     11 C          -3.447610   -2.096314    0.034271 C.ar      1 <1>         0.143200 
     12 C          -4.005451   -2.694768    1.195916 C.ar      1 <1>        -0.194500 
     13 C          -3.481682   -2.452545    2.444329 C.ar      1 <1>        -0.131100 
     14 C          -2.369732   -1.590657    2.581354 C.ar      1 <1>        -0.142200 
     15 C          -1.807552   -0.990864    1.475696 C.ar      1 <1>        -0.198400 
     16 C          -2.317548   -1.216423    0.166127 C.ar      1 <1>         0.074600 
     17 N           0.551287    1.481697    0.890957 N.ar      1 <1>        -0.549700 
     18 C           1.641786    0.512264    0.948374 C.3       1 <1>        -0.299800 
     19 C           2.639607    0.668017   -0.209454 C.2       1 <1>         0.417600 
     20 O           2.431212    1.480677   -1.095186 O.2       1 <1>        -0.458800 
     21 C           3.848544   -0.208178   -0.213194 C.ar      1 <1>         0.081000 
     22 C           4.732001   -0.104577   -1.300266 C.ar      1 <1>        -0.153500 
     23 C           5.873331   -0.897111   -1.357860 C.ar      1 <1>        -0.132700 
     24 C           6.147117   -1.803768   -0.329006 C.ar      1 <1>        -0.115900 
     25 C           5.276738   -1.913347    0.757094 C.ar      1 <1>        -0.133600 
     26 C           4.131949   -1.119733    0.816627 C.ar      1 <1>        -0.180800 
     27 C           0.699681    2.546335    1.793474 C.ar      1 <1>         0.791300 
     28 O           1.586851    2.594717    2.635136 O.2       1 <1>        -0.525100 
     29 N          -0.249494    3.528404    1.667055 N.ar      1 <1>        -0.696800 
     30 C          -1.263259    3.632420    0.706426 C.ar      1 <1>         0.605400 
     31 O          -1.993961    4.616306    0.723597 O.2       1 <1>        -0.514400 
     32 H          -2.900927    3.778548   -3.064558 H         1 <1>         0.134500 
     33 H          -2.294779    4.736310   -1.697933 H         1 <1>         0.183000 
     34 H          -1.168914    3.780485   -2.683245 H         1 <1>         0.138300 
     35 H          -2.299762    1.692201   -1.940915 H         1 <1>         0.130000 
     36 H          -4.001569    1.668098   -0.144666 H         1 <1>         0.145000 
     37 H          -4.006829    3.445417   -0.119471 H         1 <1>         0.178800 
     38 H          -4.559391    2.572050   -1.563609 H         1 <1>         0.134100 
     39 H           0.347397   -0.407754   -0.797468 H         1 <1>         0.170000 
     40 H          -0.328637    0.597124   -2.029813 H         1 <1>         0.194600 
     41 H          -1.891870   -0.494373   -3.143218 H         1 <1>         0.130800 
     42 H          -3.836452   -2.001786   -3.356184 H         1 <1>         0.134800 
     43 H          -4.840674   -3.032063   -1.332867 H         1 <1>         0.133400 
     44 H          -4.861007   -3.355297    1.076153 H         1 <1>         0.133200 
     45 H          -3.918856   -2.917959    3.323246 H         1 <1>         0.134100 
     46 H          -1.957876   -1.394586    3.567617 H         1 <1>         0.134200 
     47 H          -0.968864   -0.320882    1.616869 H         1 <1>         0.143700 
     48 H           2.156684    0.706369    1.892152 H         1 <1>         0.237200 
     49 H           1.260844   -0.512642    0.993314 H         1 <1>         0.187000 
     50 H           4.500184    0.607144   -2.085758 H         1 <1>         0.168400 
     51 H           6.551842   -0.810361   -2.201932 H         1 <1>         0.144500 
     52 H           7.039221   -2.422672   -0.373203 H         1 <1>         0.144100 
     53 H           5.490063   -2.614468    1.558867 H         1 <1>         0.143400 
     54 H           3.470062   -1.213074    1.671991 H         1 <1>         0.144900 
     55 H          -0.167204    4.303564    2.315085 H         1 <1>         0.352900 
@<TRIPOS>BOND
     1    9   42 1    
     2    8   41 1    
     3    1   32 1    
     4    1   34 1    
     5   23   51 1    
     6    8    9 ar   
     7    9   10 ar   
     8    1   33 1    
     9    2    1 1    
    10    7    8 ar   
    11   22   50 1    
    12    6   40 1    
    13    2   35 1    
    14    3   38 1    
    15   22   23 ar   
    16   23   24 ar   
    17   21   22 ar   
    18    2    3 1    
    19    4    2 1    
    20   10   43 1    
    21   11   10 ar   
    22   19   20 2    
    23    6    7 1    
    24    6   39 1    
    25    5    6 1    
    26    7   16 ar   
    27    3   36 1    
    28    3   37 1    
    29   24   52 1    
    30   25   24 ar   
    31   19   21 1    
    32   21   26 ar   
    33   18   19 1    
    34    5    4 ar   
    35    4   30 ar   
    36   17    5 ar   
    37   16   11 ar   
    38   11   12 ar   
    39   16   15 ar   
    40   26   25 ar   
    41   25   53 1    
    42   30   31 2    
    43   30   29 ar   
    44   26   54 1    
    45   17   18 1    
    46   17   27 ar   
    47   18   49 1    
    48   18   48 1    
    49   12   44 1    
    50   12   13 ar   
    51   15   47 1    
    52   15   14 ar   
    53   29   27 ar   
    54   29   55 1    
    55   27   28 2    
    56   13   14 ar   
    57   13   45 1    
    58   14   46 1    
@<TRIPOS>SUBSTRUCTURE
     1 ****       32 TEMP              0 ****  ****    0 ROOT 
