#	Name:			HYP2005-MC-1233-5-2
#	Creating user name:	Administrator
#	Creation time:		Sun Jul 05 16:45:46 2020

#	Modifying user name:	Administrator
#	Modification time:	Sun Jul 05 16:48:40 2020

@<TRIPOS>MOLECULE
HYP2005-MC-1233-5-2
   52    55     1     0     0
SMALL
MULLIKEN_CHARGES
INVALID_CHARGES
Gaussian 16 #p B3LYP/6-31G* opt
@<TRIPOS>ATOM
      1 C          -2.064160    3.439110   -2.463341 C.3       1 <1>        -0.445100 
      2 C          -2.439444    2.579839   -1.242707 C.3       1 <1>        -0.335300 
      3 C          -1.343765    2.498667   -0.203030 C.ar      1 <1>        -0.013400 
      4 C          -0.436610    1.484227   -0.105547 C.ar      1 <1>         0.337700 
      5 C          -0.390282    0.365039   -1.125845 C.3       1 <1>        -0.464000 
      6 C          -1.066688   -0.949725   -0.750887 C.ar      1 <1>         0.105100 
      7 C          -1.850911   -1.061763    0.378757 C.ar      1 <1>        -0.199200 
      8 C          -2.495737   -2.277806    0.712078 C.ar      1 <1>        -0.137500 
      9 C          -2.357029   -3.380080   -0.093951 C.ar      1 <1>        -0.186700 
     10 C          -1.568026   -3.314569   -1.274342 C.ar      1 <1>         0.135500 
     11 C          -1.417588   -4.442357   -2.123888 C.ar      1 <1>        -0.193300 
     12 C          -0.660449   -4.373677   -3.271319 C.ar      1 <1>        -0.132600 
     13 C          -0.019681   -3.162653   -3.618608 C.ar      1 <1>        -0.133000 
     14 C          -0.143218   -2.050136   -2.813742 C.ar      1 <1>        -0.201900 
     15 C          -0.912771   -2.084502   -1.617788 C.ar      1 <1>         0.077900 
     16 N           0.546422    1.483582    0.893732 N.ar      1 <1>        -0.539200 
     17 C           1.382108    0.334994    1.224853 C.3       1 <1>        -0.265600 
     18 C           0.886781   -0.384873    2.496354 C.2       1 <1>         0.439200 
     19 O          -0.179426   -0.079292    3.000305 O.2       1 <1>        -0.465100 
     20 C           1.741221   -1.470634    3.062345 C.ar      1 <1>         0.086000 
     21 C           1.295388   -2.115840    4.227452 C.ar      1 <1>        -0.150800 
     22 C           2.045338   -3.139165    4.797232 C.ar      1 <1>        -0.132900 
     23 C           3.250349   -3.534191    4.208150 C.ar      1 <1>        -0.116400 
     24 C           3.701981   -2.901044    3.048927 C.ar      1 <1>        -0.133400 
     25 C           2.952702   -1.872960    2.478408 C.ar      1 <1>        -0.179400 
     26 C           0.696932    2.544451    1.795342 C.ar      1 <1>         0.802400 
     27 O           1.571353    2.560244    2.647743 O.2       1 <1>        -0.525400 
     28 N          -0.206822    3.570242    1.627465 N.ar      1 <1>        -0.706100 
     29 C          -1.266679    3.635142    0.717271 C.ar      1 <1>         0.608400 
     30 O          -2.020854    4.600037    0.718658 O.2       1 <1>        -0.516100 
     31 H          -1.200660    3.026469   -2.999291 H         1 <1>         0.134600 
     32 H          -2.902252    3.497596   -3.167099 H         1 <1>         0.146800 
     33 H          -1.814237    4.456639   -2.148046 H         1 <1>         0.171700 
     34 H          -2.745214    1.578044   -1.560395 H         1 <1>         0.144900 
     35 H          -3.309490    3.033546   -0.757130 H         1 <1>         0.176100 
     36 H          -0.841210    0.742903   -2.048343 H         1 <1>         0.193400 
     37 H           0.659447    0.183057   -1.387569 H         1 <1>         0.169100 
     38 H          -1.965937   -0.211648    1.042436 H         1 <1>         0.162500 
     39 H          -3.097474   -2.326719    1.615030 H         1 <1>         0.140300 
     40 H          -2.847971   -4.317510    0.156191 H         1 <1>         0.132200 
     41 H          -1.918240   -5.367934   -1.849340 H         1 <1>         0.133500 
     42 H          -0.555748   -5.244717   -3.912133 H         1 <1>         0.133200 
     43 H           0.572666   -3.108124   -4.527926 H         1 <1>         0.132100 
     44 H           0.352549   -1.131137   -3.109481 H         1 <1>         0.128800 
     45 H           1.388440   -0.377351    0.399986 H         1 <1>         0.191800 
     46 H           2.403998    0.686486    1.384161 H         1 <1>         0.207500 
     47 H           0.357409   -1.792728    4.666596 H         1 <1>         0.167500 
     48 H           1.694054   -3.630496    5.700318 H         1 <1>         0.142200 
     49 H           3.836674   -4.333719    4.653061 H         1 <1>         0.141500 
     50 H           4.638191   -3.205940    2.590036 H         1 <1>         0.139900 
     51 H           3.322004   -1.390202    1.578938 H         1 <1>         0.137600 
     52 H          -0.118514    4.341737    2.279164 H         1 <1>         0.352900 
@<TRIPOS>BOND
     1    8   39 1    
     2    9   40 1    
     3    8    9 ar   
     4    7    8 ar   
     5   10    9 ar   
     6   21   47 1    
     7    7   38 1    
     8   22   48 1    
     9    6    7 ar   
    10    2   35 1    
    11   18   19 2    
    12   11   41 1    
    13   21   22 ar   
    14   20   21 ar   
    15   22   23 ar   
    16   10   11 ar   
    17   15   10 ar   
    18   29   30 2    
    19    2   34 1    
    20    3    2 1    
    21    2    1 1    
    22   11   12 ar   
    23    3   29 ar   
    24   28   29 ar   
    25    6   15 ar   
    26    5    6 1    
    27   18   20 1    
    28   17   18 1    
    29    4    3 ar   
    30   28   52 1    
    31   20   25 ar   
    32   26   28 ar   
    33   15   14 ar   
    34    1   32 1    
    35   23   49 1    
    36   23   24 ar   
    37   16    4 ar   
    38    4    5 1    
    39   16   26 ar   
    40   26   27 2    
    41    1   33 1    
    42    1   31 1    
    43   16   17 1    
    44    5   36 1    
    45    5   37 1    
    46   12   42 1    
    47   12   13 ar   
    48   17   45 1    
    49   17   46 1    
    50   25   24 ar   
    51   25   51 1    
    52   24   50 1    
    53   14   13 ar   
    54   14   44 1    
    55   13   43 1    
@<TRIPOS>SUBSTRUCTURE
     1 ****       30 TEMP              0 ****  ****    0 ROOT 
