#	Name:			HYP2005-MC-1233-4-13
#	Creating user name:	Administrator
#	Creation time:		Sun Jul 05 16:45:43 2020

#	Modifying user name:	Administrator
#	Modification time:	Sun Jul 05 16:48:40 2020

@<TRIPOS>MOLECULE
HYP2005-MC-1233-4-13
   52    55     1     0     0
SMALL
MULLIKEN_CHARGES
INVALID_CHARGES
Gaussian 16 #p B3LYP/6-31G* opt
@<TRIPOS>ATOM
      1 C          -3.801288    2.095793   -0.718780 C.3       1 <1>        -0.447500 
      2 C          -2.446148    2.604965   -1.242141 C.3       1 <1>        -0.332000 
      3 C          -1.333187    2.508745   -0.221754 C.ar      1 <1>        -0.013800 
      4 C          -0.441797    1.481153   -0.103649 C.ar      1 <1>         0.339600 
      5 C          -0.446434    0.284615   -1.027619 C.3       1 <1>        -0.454100 
      6 C          -1.044082   -1.002635   -0.463216 C.ar      1 <1>         0.098100 
      7 C          -1.736747   -1.019718    0.731562 C.ar      1 <1>        -0.197300 
      8 C          -2.305570   -2.211268    1.243260 C.ar      1 <1>        -0.137300 
      9 C          -2.179059   -3.390599    0.551948 C.ar      1 <1>        -0.188100 
     10 C          -1.481993   -3.428173   -0.685778 C.ar      1 <1>         0.136500 
     11 C          -1.346796   -4.637654   -1.417727 C.ar      1 <1>        -0.193500 
     12 C          -0.678849   -4.670080   -2.620569 C.ar      1 <1>        -0.131400 
     13 C          -0.115775   -3.483956   -3.144456 C.ar      1 <1>        -0.132600 
     14 C          -0.226427   -2.293967   -2.457876 C.ar      1 <1>        -0.199900 
     15 C          -0.905595   -2.222182   -1.209641 C.ar      1 <1>         0.074800 
     16 N           0.533161    1.476836    0.905037 N.ar      1 <1>        -0.533500 
     17 C           1.554027    0.442456    1.020787 C.3       1 <1>        -0.285400 
     18 C           2.758637    0.699141    0.102188 C.2       1 <1>         0.425000 
     19 O           2.711885    1.577415   -0.743352 O.2       1 <1>        -0.460700 
     20 C           3.962075   -0.170175    0.260267 C.ar      1 <1>         0.083600 
     21 C           5.059682    0.065725   -0.583221 C.ar      1 <1>        -0.151300 
     22 C           6.208966   -0.709787   -0.492910 C.ar      1 <1>        -0.131700 
     23 C           6.259919   -1.737735    0.452167 C.ar      1 <1>        -0.058200 
     24 CL          7.704185   -2.723938    0.572619 Cl        1 <1>        -0.001300 
     25 C           5.184149   -1.994841    1.302256 C.ar      1 <1>        -0.133400 
     26 C           4.039483   -1.207174    1.202692 C.ar      1 <1>        -0.175900 
     27 C           0.701875    2.545743    1.792732 C.ar      1 <1>         0.792700 
     28 O           1.588778    2.578674    2.633247 O.2       1 <1>        -0.524100 
     29 N          -0.232480    3.547114    1.655495 N.ar      1 <1>        -0.702300 
     30 C          -1.262873    3.635520    0.713056 C.ar      1 <1>         0.606100 
     31 O          -2.013500    4.602807    0.717471 O.2       1 <1>        -0.513900 
     32 H          -4.098579    2.655550    0.173615 H         1 <1>         0.167300 
     33 H          -4.581083    2.230757   -1.477210 H         1 <1>         0.145500 
     34 H          -3.756975    1.031719   -0.461878 H         1 <1>         0.145200 
     35 H          -2.551025    3.661955   -1.505781 H         1 <1>         0.175700 
     36 H          -2.184388    2.074743   -2.163142 H         1 <1>         0.139600 
     37 H           0.581139    0.104941   -1.360732 H         1 <1>         0.182400 
     38 H          -0.993208    0.555387   -1.934623 H         1 <1>         0.190100 
     39 H          -1.855769   -0.099880    1.295832 H         1 <1>         0.142700 
     40 H          -2.842389   -2.180977    2.187318 H         1 <1>         0.138000 
     41 H          -2.612049   -4.310167    0.937819 H         1 <1>         0.134600 
     42 H          -1.787045   -5.543525   -1.007635 H         1 <1>         0.134900 
     43 H          -0.584424   -5.602531   -3.170094 H         1 <1>         0.135900 
     44 H           0.407219   -3.510949   -4.096407 H         1 <1>         0.136000 
     45 H           0.209462   -1.397597   -2.886545 H         1 <1>         0.137500 
     46 H           1.885923    0.444889    2.060605 H         1 <1>         0.221300 
     47 H           1.119618   -0.538256    0.809867 H         1 <1>         0.199500 
     48 H           4.990477    0.870755   -1.307235 H         1 <1>         0.177000 
     49 H           7.058109   -0.526282   -1.142323 H         1 <1>         0.166500 
     50 H           5.244920   -2.796555    2.029940 H         1 <1>         0.165400 
     51 H           3.210271   -1.413890    1.871676 H         1 <1>         0.154000 
     52 H          -0.136986    4.325993    2.297178 H         1 <1>         0.353600 
@<TRIPOS>BOND
     1   13   44 1    
     2   14   45 1    
     3    2   36 1    
     4   21   48 1    
     5    2   35 1    
     6   22   49 1    
     7   14   13 ar   
     8   13   12 ar   
     9    5   38 1    
    10   18   19 2    
    11   15   14 ar   
    12    3    2 1    
    13    2    1 1    
    14    5   37 1    
    15   21   22 ar   
    16   20   21 ar   
    17    1   33 1    
    18   22   23 ar   
    19   12   43 1    
    20    4    5 1    
    21    5    6 1    
    22   11   12 ar   
    23    4    3 ar   
    24    3   30 ar   
    25    1   34 1    
    26    1   32 1    
    27   18   20 1    
    28   17   18 1    
    29   16    4 ar   
    30   30   31 2    
    31   20   26 ar   
    32    6   15 ar   
    33   15   10 ar   
    34   30   29 ar   
    35   23   24 1    
    36   23   25 ar   
    37    6    7 ar   
    38   10   11 ar   
    39   11   42 1    
    40   16   17 1    
    41   16   27 ar   
    42   29   27 ar   
    43   29   52 1    
    44   17   47 1    
    45   17   46 1    
    46   10    9 ar   
    47   27   28 2    
    48   26   25 ar   
    49   26   51 1    
    50   25   50 1    
    51    7   39 1    
    52    7    8 ar   
    53    9    8 ar   
    54    9   41 1    
    55    8   40 1    
@<TRIPOS>SUBSTRUCTURE
     1 ****       44 TEMP              0 ****  ****    0 ROOT 
