#	Name:			HYP2005-MC-1233-4-10
#	Creating user name:	Administrator
#	Creation time:		Sun Jul 05 16:45:43 2020

#	Modifying user name:	Administrator
#	Modification time:	Sun Jul 05 16:48:40 2020

@<TRIPOS>MOLECULE
HYP2005-MC-1233-4-10
   52    55     1     0     0
SMALL
MULLIKEN_CHARGES
INVALID_CHARGES
Gaussian 16 #p B3LYP/6-31G* opt
@<TRIPOS>ATOM
      1 C          -2.006292    3.383745   -2.497055 C.3       1 <1>        -0.444800 
      2 C          -2.444934    2.614429   -1.238111 C.3       1 <1>        -0.335200 
      3 C          -1.347954    2.495772   -0.199916 C.ar      1 <1>        -0.034700 
      4 C          -0.450269    1.467858   -0.092464 C.ar      1 <1>         0.373900 
      5 C          -0.439626    0.321495   -1.097056 C.3       1 <1>        -0.462500 
      6 C          -0.620225   -1.133697   -0.659250 C.ar      1 <1>         0.118800 
      7 C           0.319205   -2.054234   -1.088136 C.ar      1 <1>        -0.219000 
      8 C           0.194109   -3.437715   -0.827090 C.ar      1 <1>        -0.126300 
      9 C          -0.894861   -3.905706   -0.134441 C.ar      1 <1>        -0.189100 
     10 C          -1.898663   -3.010180    0.319939 C.ar      1 <1>         0.144300 
     11 C          -3.038216   -3.489019    1.019911 C.ar      1 <1>        -0.195600 
     12 C          -4.021034   -2.628682    1.450355 C.ar      1 <1>        -0.128900 
     13 C          -3.898652   -1.242801    1.200561 C.ar      1 <1>        -0.140300 
     14 C          -2.804461   -0.744961    0.528240 C.ar      1 <1>        -0.180000 
     15 C          -1.770131   -1.601803    0.061529 C.ar      1 <1>         0.085500 
     16 N           0.568466    1.502639    0.866542 N.ar      1 <1>        -0.550800 
     17 C           1.516753    0.419028    1.095173 C.3       1 <1>        -0.270500 
     18 C           1.045898   -0.526240    2.216532 C.2       1 <1>         0.437200 
     19 O          -0.037042   -0.354580    2.745334 O.2       1 <1>        -0.455800 
     20 C           1.954618   -1.640789    2.621065 C.ar      1 <1>         0.087300 
     21 C           3.223805   -1.834255    2.054231 C.ar      1 <1>        -0.180800 
     22 C           4.028613   -2.892705    2.474156 C.ar      1 <1>        -0.134900 
     23 C           3.572818   -3.767042    3.462400 C.ar      1 <1>        -0.117500 
     24 C           2.309523   -3.581527    4.032390 C.ar      1 <1>        -0.133600 
     25 C           1.506194   -2.525568    3.614726 C.ar      1 <1>        -0.151200 
     26 C           0.694512    2.543721    1.796229 C.ar      1 <1>         0.798800 
     27 O           1.571499    2.566082    2.645844 O.2       1 <1>        -0.522900 
     28 N          -0.230886    3.552096    1.653540 N.ar      1 <1>        -0.703800 
     29 C          -1.262446    3.636103    0.716239 C.ar      1 <1>         0.609200 
     30 O          -2.002945    4.612321    0.705620 O.2       1 <1>        -0.518500 
     31 H          -1.664179    4.387912   -2.228026 H         1 <1>         0.169300 
     32 H          -2.842664    3.487215   -3.197800 H         1 <1>         0.147200 
     33 H          -1.188051    2.872813   -3.018681 H         1 <1>         0.135600 
     34 H          -2.839659    1.632783   -1.518973 H         1 <1>         0.140200 
     35 H          -3.269842    3.160953   -0.770963 H         1 <1>         0.178800 
     36 H          -1.207294    0.548280   -1.839665 H         1 <1>         0.191600 
     37 H           0.510052    0.382130   -1.645048 H         1 <1>         0.170100 
     38 H           1.180276   -1.708364   -1.657228 H         1 <1>         0.120700 
     39 H           0.961101   -4.121054   -1.180597 H         1 <1>         0.132700 
     40 H          -1.007892   -4.967251    0.071882 H         1 <1>         0.132800 
     41 H          -3.118880   -4.557239    1.207326 H         1 <1>         0.130500 
     42 H          -4.888025   -3.008804    1.983603 H         1 <1>         0.133100 
     43 H          -4.670910   -0.562298    1.548264 H         1 <1>         0.136200 
     44 H          -2.723169    0.322550    0.371745 H         1 <1>         0.149900 
     45 H           1.676801   -0.143630    0.177513 H         1 <1>         0.182700 
     46 H           2.465479    0.872746    1.390246 H         1 <1>         0.213200 
     47 H           3.596805   -1.160229    1.289051 H         1 <1>         0.135900 
     48 H           5.011397   -3.032814    2.032716 H         1 <1>         0.137900 
     49 H           4.201593   -4.590738    3.789858 H         1 <1>         0.139700 
     50 H           1.954899   -4.260884    4.802566 H         1 <1>         0.140700 
     51 H           0.522885   -2.360681    4.042709 H         1 <1>         0.169700 
     52 H          -0.149884    4.317889    2.312596 H         1 <1>         0.353100 
@<TRIPOS>BOND
     1    7   38 1    
     2    8   39 1    
     3    1   33 1    
     4    5   37 1    
     5    7    8 ar   
     6    6    7 ar   
     7    8    9 ar   
     8    1   32 1    
     9   22   48 1    
    10    5   36 1    
    11    1   31 1    
    12    2    1 1    
    13   21   47 1    
    14    5    6 1    
    15    4    5 1    
    16   17   45 1    
    17    6   15 ar   
    18   21   22 ar   
    19   22   23 ar   
    20    9   40 1    
    21   10    9 ar   
    22   20   21 ar   
    23   17   46 1    
    24    2   34 1    
    25   17   16 1    
    26   18   17 1    
    27   16    4 ar   
    28    4    3 ar   
    29    3    2 1    
    30    2   35 1    
    31   16   26 ar   
    32    3   29 ar   
    33   15   10 ar   
    34   15   14 ar   
    35   23   49 1    
    36   23   24 ar   
    37   10   11 ar   
    38   20   18 1    
    39   20   25 ar   
    40   18   19 2    
    41   26   27 2    
    42   26   28 ar   
    43   29   28 ar   
    44   29   30 2    
    45   14   44 1    
    46   14   13 ar   
    47   28   52 1    
    48   24   25 ar   
    49   24   50 1    
    50   11   41 1    
    51   11   12 ar   
    52   25   51 1    
    53   13   12 ar   
    54   13   43 1    
    55   12   42 1    
@<TRIPOS>SUBSTRUCTURE
     1 ****       48 TEMP              0 ****  ****    0 ROOT 
