#	Name:			HYP2005-MC-1233-4-11
#	Creating user name:	Administrator
#	Creation time:		Sun Jul 05 16:45:43 2020

#	Modifying user name:	Administrator
#	Modification time:	Sun Jul 05 16:48:40 2020

@<TRIPOS>MOLECULE
HYP2005-MC-1233-4-11
   55    58     1     0     0
SMALL
MULLIKEN_CHARGES
INVALID_CHARGES
Gaussian 16 #p B3LYP/6-31G* opt
@<TRIPOS>ATOM
      1 C          -2.288920    3.548756   -2.335122 C.3       1 <1>        -0.448800 
      2 C          -2.504305    2.558302   -1.176548 C.3       1 <1>        -0.322200 
      3 C          -1.351062    2.496230   -0.200853 C.ar      1 <1>        -0.003800 
      4 C          -0.451623    1.474610   -0.103281 C.ar      1 <1>         0.355000 
      5 C          -0.502346    0.263927   -1.031268 C.3       1 <1>        -0.462100 
      6 C          -0.375509    0.492300   -2.535750 C.ar      1 <1>         0.137600 
      7 C          -1.356250   -0.030221   -3.357546 C.ar      1 <1>        -0.209000 
      8 C          -1.282690    0.057294   -4.766618 C.ar      1 <1>        -0.128500 
      9 C          -0.207428    0.670771   -5.360521 C.ar      1 <1>        -0.190800 
     10 C           0.837015    1.215962   -4.567655 C.ar      1 <1>         0.143600 
     11 C           1.962428    1.838311   -5.171476 C.ar      1 <1>        -0.194500 
     12 C           2.983297    2.357826   -4.409894 C.ar      1 <1>        -0.131100 
     13 C           2.916018    2.277981   -3.000236 C.ar      1 <1>        -0.141600 
     14 C           1.836823    1.683703   -2.383193 C.ar      1 <1>        -0.197200 
     15 C           0.762234    1.130801   -3.134392 C.ar      1 <1>         0.075200 
     16 N           0.561230    1.489838    0.876769 N.ar      1 <1>        -0.551900 
     17 C           1.414944    0.342667    1.172123 C.3       1 <1>        -0.298600 
     18 C           0.649090   -0.816522    1.830074 C.2       1 <1>         0.416000 
     19 O          -0.560726   -0.747391    1.977250 O.2       1 <1>        -0.462800 
     20 C           1.428833   -2.010471    2.261454 C.ar      1 <1>         0.080200 
     21 C           2.823879   -2.099759    2.142784 C.ar      1 <1>        -0.179600 
     22 C           3.496081   -3.244460    2.566259 C.ar      1 <1>        -0.186400 
     23 C           2.801741   -4.329080    3.116687 C.ar      1 <1>         0.187300 
     24 C           3.526294   -5.577325    3.557797 C.3       1 <1>        -0.533300 
     25 C           1.405191   -4.231676    3.236684 C.ar      1 <1>        -0.180000 
     26 C           0.728568   -3.094907    2.817023 C.ar      1 <1>        -0.153500 
     27 C           0.700397    2.545926    1.792051 C.ar      1 <1>         0.790200 
     28 O           1.554057    2.564647    2.668678 O.2       1 <1>        -0.525300 
     29 N          -0.194433    3.572959    1.616215 N.ar      1 <1>        -0.697700 
     30 C          -1.260179    3.635433    0.711398 C.ar      1 <1>         0.605700 
     31 O          -2.018409    4.596947    0.730657 O.2       1 <1>        -0.515200 
     32 H          -3.172643    3.572246   -2.983171 H         1 <1>         0.138200 
     33 H          -1.426436    3.266896   -2.946905 H         1 <1>         0.152500 
     34 H          -2.127229    4.557363   -1.944916 H         1 <1>         0.171000 
     35 H          -2.723749    1.565531   -1.575538 H         1 <1>         0.133600 
     36 H          -3.386709    2.878958   -0.610607 H         1 <1>         0.165800 
     37 H           0.257055   -0.462922   -0.740751 H         1 <1>         0.168900 
     38 H          -1.456003   -0.240388   -0.844692 H         1 <1>         0.194600 
     39 H          -2.213675   -0.526433   -2.909090 H         1 <1>         0.130200 
     40 H          -2.081459   -0.363674   -5.370732 H         1 <1>         0.134500 
     41 H          -0.136919    0.745084   -6.442946 H         1 <1>         0.133100 
     42 H           2.001134    1.894918   -6.256771 H         1 <1>         0.133000 
     43 H           3.837798    2.830552   -4.886124 H         1 <1>         0.133800 
     44 H           3.719033    2.693990   -2.397831 H         1 <1>         0.133800 
     45 H           1.804183    1.657021   -1.300983 H         1 <1>         0.142100 
     46 H           2.173155    0.711611    1.866299 H         1 <1>         0.236200 
     47 H           1.938638   -0.003768    0.275840 H         1 <1>         0.184700 
     48 H           3.400042   -1.277548    1.729385 H         1 <1>         0.142800 
     49 H           4.577869   -3.295068    2.471382 H         1 <1>         0.134300 
     50 H           3.357050   -6.400629    2.851514 H         1 <1>         0.173700 
     51 H           3.173540   -5.917706    4.537953 H         1 <1>         0.169200 
     52 H           4.606345   -5.414213    3.622707 H         1 <1>         0.162600 
     53 H           0.847636   -5.060131    3.667662 H         1 <1>         0.135400 
     54 H          -0.349588   -3.017462    2.912280 H         1 <1>         0.166500 
     55 H          -0.111277    4.341330    2.271980 H         1 <1>         0.352500 
@<TRIPOS>BOND
     1    8   40 1    
     2    7   39 1    
     3    2   35 1    
     4    7    8 ar   
     5    8    9 ar   
     6    2   36 1    
     7   26   54 1    
     8    6    7 ar   
     9    5   38 1    
    10   25   53 1    
    11    1   32 1    
    12    2    1 1    
    13    3    2 1    
    14   18   19 2    
    15   26   25 ar   
    16   20   26 ar   
    17   25   23 ar   
    18    1   33 1    
    19    1   34 1    
    20    5    6 1    
    21    5   37 1    
    22    4    5 1    
    23    9   41 1    
    24   10    9 ar   
    25    6   15 ar   
    26   24   50 1    
    27    4    3 ar   
    28    3   30 ar   
    29   24   51 1    
    30   18   20 1    
    31   17   18 1    
    32   16    4 ar   
    33   20   21 ar   
    34   23   24 1    
    35   23   22 ar   
    36   24   52 1    
    37   30   31 2    
    38   30   29 ar   
    39   15   10 ar   
    40   10   11 ar   
    41   15   14 ar   
    42   16   17 1    
    43   16   27 ar   
    44   17   47 1    
    45   17   46 1    
    46   21   22 ar   
    47   21   48 1    
    48   22   49 1    
    49   29   27 ar   
    50   29   55 1    
    51   27   28 2    
    52   11   42 1    
    53   11   12 ar   
    54   14   45 1    
    55   14   13 ar   
    56   12   13 ar   
    57   12   43 1    
    58   13   44 1    
@<TRIPOS>SUBSTRUCTURE
     1 ****       35 TEMP              0 ****  ****    0 ROOT 
