#	Name:			HYP2005-MC-1233-4-15
#	Creating user name:	Administrator
#	Creation time:		Sun Jul 05 16:45:43 2020

#	Modifying user name:	Administrator
#	Modification time:	Sun Jul 05 16:48:40 2020

@<TRIPOS>MOLECULE
HYP2005-MC-1233-4-15
   52    55     1     0     0
SMALL
MULLIKEN_CHARGES
INVALID_CHARGES
Gaussian 16 #p B3LYP/6-31G* opt
@<TRIPOS>ATOM
      1 C          -2.065470    3.435213   -2.463918 C.3       1 <1>        -0.445200 
      2 C          -2.441223    2.578928   -1.241437 C.3       1 <1>        -0.335600 
      3 C          -1.344493    2.497666   -0.202823 C.ar      1 <1>        -0.014100 
      4 C          -0.437199    1.483789   -0.105990 C.ar      1 <1>         0.338000 
      5 C          -0.390188    0.361913   -1.122847 C.3       1 <1>        -0.462800 
      6 C          -1.046607   -0.958801   -0.732787 C.ar      1 <1>         0.102500 
      7 C          -1.842136   -1.063918    0.389786 C.ar      1 <1>        -0.198300 
      8 C          -2.470298   -2.284467    0.737974 C.ar      1 <1>        -0.138100 
      9 C          -2.302333   -3.398761   -0.045705 C.ar      1 <1>        -0.187000 
     10 C          -1.500601   -3.341012   -1.217903 C.ar      1 <1>         0.135200 
     11 C          -1.320201   -4.481876   -2.044014 C.ar      1 <1>        -0.193200 
     12 C          -0.551445   -4.420996   -3.184028 C.ar      1 <1>        -0.132200 
     13 C           0.070807   -3.205184   -3.547626 C.ar      1 <1>        -0.132600 
     14 C          -0.081816   -2.079962   -2.765710 C.ar      1 <1>        -0.202500 
     15 C          -0.863315   -2.105992   -1.577265 C.ar      1 <1>         0.077800 
     16 N           0.546815    1.485179    0.893291 N.ar      1 <1>        -0.539900 
     17 C           1.389709    0.341440    1.218892 C.3       1 <1>        -0.264300 
     18 C           0.908844   -0.376852    2.495247 C.2       1 <1>         0.442800 
     19 O          -0.156856   -0.085683    3.007083 O.2       1 <1>        -0.462100 
     20 C           1.778085   -1.450450    3.062769 C.ar      1 <1>         0.087500 
     21 C           1.345956   -2.097067    4.230933 C.ar      1 <1>        -0.151000 
     22 C           2.106087   -3.110494    4.806089 C.ar      1 <1>        -0.204000 
     23 C           3.304476   -3.483324    4.208523 C.ar      1 <1>         0.332500 
     24 F           4.057092   -4.456437    4.738262 F         1 <1>        -0.271800 
     25 C           3.743474   -2.848450    3.045691 C.ar      1 <1>         0.326200 
     26 F           4.905424   -3.232674    2.493203 F         1 <1>        -0.278900 
     27 C           2.992450   -1.836807    2.470573 C.ar      1 <1>        -0.263600 
     28 C           0.697049    2.545592    1.795474 C.ar      1 <1>         0.803300 
     29 O           1.571347    2.558894    2.648235 O.2       1 <1>        -0.525800 
     30 N          -0.206693    3.570599    1.628126 N.ar      1 <1>        -0.706500 
     31 C          -1.266456    3.635091    0.717075 C.ar      1 <1>         0.608800 
     32 O          -2.020394    4.599781    0.718247 O.2       1 <1>        -0.514100 
     33 H          -1.812537    4.452722   -2.150972 H         1 <1>         0.172000 
     34 H          -1.203866    3.019383   -3.000443 H         1 <1>         0.135100 
     35 H          -2.904528    3.494537   -3.166416 H         1 <1>         0.147900 
     36 H          -3.310005    3.034864   -0.755755 H         1 <1>         0.176700 
     37 H          -2.749040    1.577124   -1.557035 H         1 <1>         0.145200 
     38 H          -0.855299    0.730126   -2.042074 H         1 <1>         0.194600 
     39 H           0.658913    0.191668   -1.394726 H         1 <1>         0.169200 
     40 H          -1.980280   -0.203275    1.035520 H         1 <1>         0.160500 
     41 H          -3.082713   -2.327220    1.633979 H         1 <1>         0.140300 
     42 H          -2.780085   -4.339810    0.215919 H         1 <1>         0.133200 
     43 H          -1.807237   -5.411007   -1.757360 H         1 <1>         0.134500 
     44 H          -0.423450   -5.302031   -3.806838 H         1 <1>         0.134800 
     45 H           0.671898   -3.156975   -4.451494 H         1 <1>         0.133600 
     46 H           0.399515   -1.157726   -3.074860 H         1 <1>         0.129400 
     47 H           1.390396   -0.373509    0.396065 H         1 <1>         0.194000 
     48 H           2.411977    0.696806    1.368323 H         1 <1>         0.208000 
     49 H           0.407051   -1.785988    4.674824 H         1 <1>         0.178100 
     50 H           1.790223   -3.619854    5.710520 H         1 <1>         0.167000 
     51 H           3.377034   -1.371474    1.570114 H         1 <1>         0.161000 
     52 H          -0.118417    4.342831    2.279086 H         1 <1>         0.353900 
@<TRIPOS>BOND
     1    8   41 1    
     2    9   42 1    
     3    8    9 ar   
     4    7    8 ar   
     5   21   49 1    
     6   22   50 1    
     7   10    9 ar   
     8    7   40 1    
     9    6    7 ar   
    10   18   19 2    
    11   21   22 ar   
    12   20   21 ar   
    13   22   23 ar   
    14   11   43 1    
    15    2   36 1    
    16   10   11 ar   
    17   15   10 ar   
    18   31   32 2    
    19    2   37 1    
    20   11   12 ar   
    21   18   20 1    
    22   17   18 1    
    23    3    2 1    
    24    2    1 1    
    25   20   27 ar   
    26    6   15 ar   
    27    5    6 1    
    28    3   31 ar   
    29   30   31 ar   
    30   23   24 1    
    31   23   25 ar   
    32   30   52 1    
    33    4    3 ar   
    34   28   30 ar   
    35   15   14 ar   
    36   16    4 ar   
    37    4    5 1    
    38   16   28 ar   
    39   28   29 2    
    40   16   17 1    
    41    1   35 1    
    42   12   44 1    
    43   12   13 ar   
    44    5   38 1    
    45    5   39 1    
    46   17   47 1    
    47   17   48 1    
    48    1   33 1    
    49    1   34 1    
    50   27   25 ar   
    51   27   51 1    
    52   25   26 1    
    53   14   13 ar   
    54   14   46 1    
    55   13   45 1    
@<TRIPOS>SUBSTRUCTURE
     1 ****       32 TEMP              0 ****  ****    0 ROOT 
