#	Name:			HYP2005-MC-1233-4-39
#	Creating user name:	Administrator
#	Creation time:		Sun Jul 05 16:45:45 2020

#	Modifying user name:	Administrator
#	Modification time:	Sun Jul 05 16:48:40 2020

@<TRIPOS>MOLECULE
HYP2005-MC-1233-4-39
   47    49     1     0     0
SMALL
MULLIKEN_CHARGES
INVALID_CHARGES
Gaussian 16 #p B3LYP/6-31G* opt
@<TRIPOS>ATOM
      1 C           3.932606    1.352210   -2.740327 C.3       1 <1>        -0.466300 
      2 C           3.917451    2.112881   -1.424016 C.3       1 <1>        -0.049000 
      3 O           2.744514    1.778431   -0.634491 O.3       1 <1>        -0.454800 
      4 C           2.844206    0.698571    0.160248 C.2       1 <1>         0.644700 
      5 O           3.809299   -0.027626    0.237403 O.2       1 <1>        -0.469400 
      6 C           1.578616    0.448621    0.978943 C.3       1 <1>        -0.279700 
      7 N           0.548588    1.479379    0.890721 N.ar      1 <1>        -0.543600 
      8 C          -0.437755    1.476010   -0.100536 C.ar      1 <1>         0.334400 
      9 C          -0.475845    0.330114   -1.079735 C.3       1 <1>        -0.439700 
     10 C          -1.057364   -0.981588   -0.558014 C.ar      1 <1>         0.105000 
     11 C          -1.704617   -1.055137    0.659388 C.ar      1 <1>        -0.199300 
     12 C          -2.262176   -2.267553    1.132525 C.ar      1 <1>        -0.135300 
     13 C          -2.170688   -3.411046    0.378430 C.ar      1 <1>        -0.187200 
     14 C          -1.523199   -3.389192   -0.886295 C.ar      1 <1>         0.137200 
     15 C          -1.426220   -4.560274   -1.683780 C.ar      1 <1>        -0.192900 
     16 C          -0.808373   -4.534163   -2.913182 C.ar      1 <1>        -0.131000 
     17 C          -0.259849   -3.325307   -3.399162 C.ar      1 <1>        -0.132000 
     18 C          -0.333746   -2.171798   -2.648514 C.ar      1 <1>        -0.196800 
     19 C          -0.959351   -2.161264   -1.371030 C.ar      1 <1>         0.075700 
     20 C          -1.328938    2.504060   -0.198317 C.ar      1 <1>         0.201500 
     21 O          -2.230694    2.533011   -1.227030 O.3       1 <1>        -0.523600 
     22 C          -3.615694    2.535023   -0.846081 C.3       1 <1>        -0.225500 
     23 C          -1.271240    3.646709    0.714510 C.ar      1 <1>         0.621500 
     24 O          -2.008949    4.621793    0.698362 O.2       1 <1>        -0.506800 
     25 N          -0.254036    3.530740    1.669994 N.ar      1 <1>        -0.712100 
     26 C           0.700808    2.538278    1.791373 C.ar      1 <1>         0.786800 
     27 O           1.591501    2.579622    2.625528 O.2       1 <1>        -0.517000 
     28 H           4.027743    0.277029   -2.564076 H         1 <1>         0.177900 
     29 H           4.787612    1.677063   -3.344200 H         1 <1>         0.157400 
     30 H           3.018562    1.542867   -3.312589 H         1 <1>         0.158000 
     31 H           4.807591    1.897902   -0.828683 H         1 <1>         0.179100 
     32 H           3.833671    3.190479   -1.580665 H         1 <1>         0.162500 
     33 H           1.891576    0.380693    2.021561 H         1 <1>         0.233700 
     34 H           1.165036   -0.519840    0.693304 H         1 <1>         0.210200 
     35 H          -1.067977    0.670851   -1.934252 H         1 <1>         0.211200 
     36 H           0.538996    0.164311   -1.459527 H         1 <1>         0.171300 
     37 H          -1.794101   -0.164802    1.274881 H         1 <1>         0.134300 
     38 H          -2.760245   -2.282986    2.097929 H         1 <1>         0.136500 
     39 H          -2.593209   -4.347113    0.734927 H         1 <1>         0.134400 
     40 H          -1.854795   -5.484034   -1.302230 H         1 <1>         0.134600 
     41 H          -0.742213   -5.437942   -3.512520 H         1 <1>         0.135300 
     42 H           0.222641   -3.305917   -4.372532 H         1 <1>         0.134400 
     43 H           0.088164   -1.255985   -3.048815 H         1 <1>         0.134100 
     44 H          -3.861964    1.624056   -0.285245 H         1 <1>         0.141100 
     45 H          -4.178726    2.548699   -1.781405 H         1 <1>         0.163100 
     46 H          -3.852551    3.421479   -0.253642 H         1 <1>         0.189000 
     47 H          -0.153773    4.307390    2.314267 H         1 <1>         0.356700 
@<TRIPOS>BOND
     1   22   45 1    
     2    1   30 1    
     3    1   29 1    
     4   17   42 1    
     5   21   22 1    
     6   20   21 1    
     7    1   28 1    
     8    2    1 1    
     9   22   46 1    
    10   22   44 1    
    11   18   43 1    
    12    9   35 1    
    13    2   32 1    
    14   18   17 ar   
    15   17   16 ar   
    16   19   18 ar   
    17    3    2 1    
    18    2   31 1    
    19   23   24 2    
    20   16   41 1    
    21   20   23 ar   
    22    8   20 ar   
    23    9   36 1    
    24    8    9 1    
    25    9   10 1    
    26   15   16 ar   
    27   25   23 ar   
    28    4    3 1    
    29    7    8 ar   
    30   10   19 ar   
    31   19   14 ar   
    32   10   11 ar   
    33   14   15 ar   
    34   15   40 1    
    35   14   13 ar   
    36   25   47 1    
    37   26   25 ar   
    38    7   26 ar   
    39    6    7 1    
    40    4    5 2    
    41    4    6 1    
    42   11   37 1    
    43   11   12 ar   
    44   26   27 2    
    45    6   34 1    
    46    6   33 1    
    47   13   12 ar   
    48   13   39 1    
    49   12   38 1    
@<TRIPOS>SUBSTRUCTURE
     1 ****       30 TEMP              0 ****  ****    0 ROOT 
