#	Name:			HYP2005-MC-1233-4-30
#	Creating user name:	Administrator
#	Creation time:		Sun Jul 05 16:45:44 2020

#	Modifying user name:	Administrator
#	Modification time:	Sun Jul 05 16:48:40 2020

@<TRIPOS>MOLECULE
HYP2005-MC-1233-4-30
   58    61     1     0     0
SMALL
MULLIKEN_CHARGES
INVALID_CHARGES
Gaussian 16 #p B3LYP/6-31G* opt
@<TRIPOS>ATOM
      1 C          -4.870976    2.564794   -1.909585 C.3       1 <1>        -0.443500 
      2 C          -3.817228    2.262551   -0.839977 C.3       1 <1>        -0.257800 
      3 C          -2.397791    2.664730   -1.287625 C.3       1 <1>        -0.335300 
      4 C          -1.327869    2.513864   -0.224664 C.ar      1 <1>        -0.027700 
      5 C          -0.452054    1.469370   -0.093119 C.ar      1 <1>         0.361200 
      6 C          -0.498947    0.275737   -1.036680 C.3       1 <1>        -0.447400 
      7 C          -0.541133   -1.160732   -0.509934 C.ar      1 <1>         0.083400 
      8 C           0.289024   -2.082041   -1.126159 C.ar      1 <1>        -0.211400 
      9 C           0.275087   -3.454084   -0.787736 C.ar      1 <1>        -0.128200 
     10 C          -0.581751   -3.911700    0.183164 C.ar      1 <1>        -0.192100 
     11 C          -1.459450   -3.015188    0.847533 C.ar      1 <1>         0.142600 
     12 C          -2.355251   -3.481018    1.847188 C.ar      1 <1>        -0.195700 
     13 C          -3.217387   -2.621494    2.487109 C.ar      1 <1>        -0.129700 
     14 C          -3.216212   -1.248533    2.150505 C.ar      1 <1>        -0.143800 
     15 C          -2.357923   -0.762566    1.188399 C.ar      1 <1>        -0.192300 
     16 C          -1.451572   -1.618585    0.502349 C.ar      1 <1>         0.081100 
     17 N           0.545784    1.480799    0.890786 N.ar      1 <1>        -0.550000 
     18 C           1.660046    0.537581    0.907392 C.3       1 <1>        -0.289500 
     19 C           2.725462    0.872722   -0.146888 C.2       1 <1>         0.413500 
     20 O           2.520390    1.748190   -0.973906 O.2       1 <1>        -0.467200 
     21 C           3.989367    0.082838   -0.137454 C.ar      1 <1>         0.079700 
     22 C           4.245554   -0.942719    0.784956 C.ar      1 <1>        -0.178400 
     23 C           5.444828   -1.650604    0.737623 C.ar      1 <1>        -0.186900 
     24 C           6.421650   -1.355848   -0.221795 C.ar      1 <1>         0.186400 
     25 C           7.733018   -2.102345   -0.254409 C.3       1 <1>        -0.532600 
     26 C           6.157995   -0.329471   -1.144256 C.ar      1 <1>        -0.180600 
     27 C           4.964668    0.378661   -1.104802 C.ar      1 <1>        -0.155100 
     28 C           0.697782    2.544139    1.792742 C.ar      1 <1>         0.791400 
     29 O           1.594916    2.593347    2.621582 O.2       1 <1>        -0.522800 
     30 N          -0.260611    3.524642    1.683880 N.ar      1 <1>        -0.699400 
     31 C          -1.259651    3.636317    0.713202 C.ar      1 <1>         0.609000 
     32 O          -1.998320    4.614113    0.707225 O.2       1 <1>        -0.520100 
     33 H          -4.662006    2.023653   -2.841273 H         1 <1>         0.137200 
     34 H          -4.895948    3.635302   -2.145436 H         1 <1>         0.151500 
     35 H          -5.872576    2.273160   -1.573875 H         1 <1>         0.143800 
     36 H          -3.841163    1.193053   -0.592648 H         1 <1>         0.132100 
     37 H          -4.058027    2.807798    0.080110 H         1 <1>         0.157800 
     38 H          -2.420540    3.726752   -1.556319 H         1 <1>         0.172500 
     39 H          -2.131826    2.123636   -2.201768 H         1 <1>         0.137000 
     40 H           0.368707    0.358994   -1.702212 H         1 <1>         0.193900 
     41 H          -1.374708    0.413251   -1.673999 H         1 <1>         0.187500 
     42 H           0.975598   -1.741830   -1.898016 H         1 <1>         0.134600 
     43 H           0.946008   -4.137617   -1.300373 H         1 <1>         0.135300 
     44 H          -0.603575   -4.964129    0.455072 H         1 <1>         0.133700 
     45 H          -2.346632   -4.539714    2.095868 H         1 <1>         0.132700 
     46 H          -3.897590   -2.992692    3.248739 H         1 <1>         0.135000 
     47 H          -3.896859   -0.568781    2.655888 H         1 <1>         0.137900 
     48 H          -2.372437    0.294126    0.954985 H         1 <1>         0.152800 
     49 H           1.299199   -0.480454    0.756375 H         1 <1>         0.205600 
     50 H           2.100544    0.597056    1.903744 H         1 <1>         0.225000 
     51 H           3.515192   -1.199814    1.545876 H         1 <1>         0.145800 
     52 H           5.626215   -2.443593    1.459006 H         1 <1>         0.132900 
     53 H           7.675817   -3.041285    0.304808 H         1 <1>         0.161400 
     54 H           8.537368   -1.501880    0.190682 H         1 <1>         0.175600 
     55 H           8.035857   -2.334167   -1.281486 H         1 <1>         0.165800 
     56 H           6.901630   -0.087332   -1.900124 H         1 <1>         0.133900 
     57 H           4.760019    1.171696   -1.816618 H         1 <1>         0.165700 
     58 H          -0.169009    4.298846    2.331669 H         1 <1>         0.352300 
@<TRIPOS>BOND
     1    1   33 1    
     2    1   34 1    
     3    3   39 1    
     4    1   35 1    
     5    2    1 1    
     6    8   42 1    
     7    6   41 1    
     8    6   40 1    
     9    9   43 1    
    10   26   56 1    
    11    3   38 1    
    12   27   57 1    
    13    8    9 ar   
    14    7    8 ar   
    15    3    2 1    
    16    4    3 1    
    17    9   10 ar   
    18    6    7 1    
    19    5    6 1    
    20    2   36 1    
    21    2   37 1    
    22   25   55 1    
    23   27   26 ar   
    24   26   24 ar   
    25   21   27 ar   
    26   19   20 2    
    27    7   16 ar   
    28   10   44 1    
    29   11   10 ar   
    30    5    4 ar   
    31    4   31 ar   
    32   17    5 ar   
    33   24   25 1    
    34   25   53 1    
    35   25   54 1    
    36   23   24 ar   
    37   19   21 1    
    38   18   19 1    
    39   21   22 ar   
    40   16   11 ar   
    41   16   15 ar   
    42   11   12 ar   
    43   18   49 1    
    44   15   48 1    
    45   31   32 2    
    46   31   30 ar   
    47   15   14 ar   
    48   22   23 ar   
    49   23   52 1    
    50   22   51 1    
    51   17   18 1    
    52   17   28 ar   
    53   18   50 1    
    54   12   45 1    
    55   12   13 ar   
    56   14   13 ar   
    57   14   47 1    
    58   30   28 ar   
    59   30   58 1    
    60   13   46 1    
    61   28   29 2    
@<TRIPOS>SUBSTRUCTURE
     1 ****       39 TEMP              0 ****  ****    0 ROOT 
