#	Name:			HYP2005-MC-1233-4-12
#	Creating user name:	Administrator
#	Creation time:		Sun Jul 05 16:45:43 2020

#	Modifying user name:	Administrator
#	Modification time:	Sun Jul 05 16:48:40 2020

@<TRIPOS>MOLECULE
HYP2005-MC-1233-4-12
   56    59     1     0     0
SMALL
MULLIKEN_CHARGES
INVALID_CHARGES
Gaussian 16 #p B3LYP/6-31G* opt
@<TRIPOS>ATOM
      1 C          -3.819949    2.257521   -0.811883 C.3       1 <1>        -0.451000 
      2 C          -2.408531    2.655941   -1.277648 C.3       1 <1>        -0.330900 
      3 C          -1.329814    2.511580   -0.221189 C.ar      1 <1>        -0.021700 
      4 C          -0.456932    1.463424   -0.089340 C.ar      1 <1>         0.348100 
      5 C          -0.519405    0.258992   -1.017397 C.3       1 <1>        -0.448900 
      6 C          -0.579178   -1.167962   -0.466093 C.ar      1 <1>         0.077900 
      7 C           0.238678   -2.107117   -1.072678 C.ar      1 <1>        -0.208600 
      8 C           0.209901   -3.474184   -0.715639 C.ar      1 <1>        -0.127800 
      9 C          -0.648253   -3.908821    0.264560 C.ar      1 <1>        -0.191200 
     10 C          -1.512316   -2.993211    0.920671 C.ar      1 <1>         0.142800 
     11 C          -2.408900   -3.435067    1.930497 C.ar      1 <1>        -0.195500 
     12 C          -3.257956   -2.556943    2.562847 C.ar      1 <1>        -0.130100 
     13 C          -3.242273   -1.188754    2.207875 C.ar      1 <1>        -0.143900 
     14 C          -2.382766   -0.726283    1.235334 C.ar      1 <1>        -0.193200 
     15 C          -1.489452   -1.601574    0.556678 C.ar      1 <1>         0.081900 
     16 N           0.555555    1.489777    0.881339 N.ar      1 <1>        -0.545600 
     17 C           1.674420    0.538458    0.921064 C.3       1 <1>        -0.267500 
     18 C           2.823930    0.948449   -0.020844 C.2       1 <1>         0.396700 
     19 O           2.561598    1.176162   -1.197187 O.2       1 <1>        -0.476300 
     20 C           4.215051    0.971750    0.485914 C.ar      1 <1>         0.063500 
     21 C           5.259635    0.867366   -0.446883 C.ar      1 <1>        -0.158700 
     22 C           6.590698    0.878122   -0.048211 C.ar      1 <1>        -0.198400 
     23 C           6.900431    1.017335    1.314839 C.ar      1 <1>         0.390500 
     24 O           8.160354    1.042727    1.818558 O.3       1 <1>        -0.497800 
     25 C           9.257821    0.939491    0.920087 C.3       1 <1>        -0.220800 
     26 C           5.866221    1.149035    2.256430 C.ar      1 <1>        -0.183000 
     27 C           4.541989    1.121479    1.849021 C.ar      1 <1>        -0.179900 
     28 C           0.695201    2.543129    1.792574 C.ar      1 <1>         0.788300 
     29 O           1.592757    2.591346    2.624422 O.2       1 <1>        -0.525600 
     30 N          -0.262637    3.523472    1.686950 N.ar      1 <1>        -0.699700 
     31 C          -1.259554    3.636823    0.712422 C.ar      1 <1>         0.604600 
     32 O          -1.994597    4.617040    0.704456 O.2       1 <1>        -0.518100 
     33 H          -4.554477    2.471067   -1.596762 H         1 <1>         0.145300 
     34 H          -3.885988    1.190337   -0.572817 H         1 <1>         0.144700 
     35 H          -4.102002    2.829824    0.077250 H         1 <1>         0.169000 
     36 H          -2.145570    2.107676   -2.186965 H         1 <1>         0.142600 
     37 H          -2.430267    3.715490   -1.552794 H         1 <1>         0.175600 
     38 H          -1.393278    0.397383   -1.656968 H         1 <1>         0.182400 
     39 H           0.358372    0.324475   -1.669467 H         1 <1>         0.213300 
     40 H           0.927397   -1.782142   -1.849005 H         1 <1>         0.140000 
     41 H           0.871012   -4.172591   -1.221097 H         1 <1>         0.134500 
     42 H          -0.680996   -4.957144    0.550877 H         1 <1>         0.133200 
     43 H          -2.411308   -4.490210    2.193522 H         1 <1>         0.132300 
     44 H          -3.938921   -2.910063    3.332352 H         1 <1>         0.134100 
     45 H          -3.912537   -0.494401    2.707152 H         1 <1>         0.136600 
     46 H          -2.385459    0.327157    0.987613 H         1 <1>         0.150500 
     47 H           1.986717    0.450345    1.957118 H         1 <1>         0.196100 
     48 H           1.328992   -0.440349    0.589500 H         1 <1>         0.205300 
     49 H           5.005106    0.770993   -1.497575 H         1 <1>         0.160600 
     50 H           7.373427    0.781615   -0.791574 H         1 <1>         0.139900 
     51 H           9.265732    1.767341    0.200146 H         1 <1>         0.160100 
     52 H          10.154080    0.990222    1.540175 H         1 <1>         0.177000 
     53 H           9.244052   -0.014446    0.377876 H         1 <1>         0.157900 
     54 H           6.131517    1.282037    3.300278 H         1 <1>         0.149400 
     55 H           3.760317    1.279272    2.584011 H         1 <1>         0.187000 
     56 H          -0.174541    4.294817    2.338730 H         1 <1>         0.352500 
@<TRIPOS>BOND
     1    2   36 1    
     2    7   40 1    
     3   21   49 1    
     4    5   39 1    
     5    5   38 1    
     6    2   37 1    
     7    1   33 1    
     8    8   41 1    
     9   18   19 2    
    10   22   50 1    
    11    2    1 1    
    12    3    2 1    
    13    7    8 ar   
    14    6    7 ar   
    15    5    6 1    
    16    4    5 1    
    17    8    9 ar   
    18   22   21 ar   
    19   21   20 ar   
    20    1   34 1    
    21    1   35 1    
    22    6   15 ar   
    23   23   22 ar   
    24   25   51 1    
    25   20   18 1    
    26   18   17 1    
    27    4    3 ar   
    28    3   31 ar   
    29   25   53 1    
    30   16    4 ar   
    31    9   42 1    
    32   10    9 ar   
    33   20   27 ar   
    34   25   52 1    
    35   24   25 1    
    36   17   48 1    
    37   15   10 ar   
    38   15   14 ar   
    39   31   32 2    
    40   31   30 ar   
    41   17   16 1    
    42   17   47 1    
    43   16   28 ar   
    44   10   11 ar   
    45   23   24 1    
    46   23   26 ar   
    47   14   46 1    
    48   14   13 ar   
    49   27   26 ar   
    50   27   55 1    
    51   30   28 ar   
    52   30   56 1    
    53   28   29 2    
    54   11   43 1    
    55   11   12 ar   
    56   26   54 1    
    57   13   12 ar   
    58   13   45 1    
    59   12   44 1    
@<TRIPOS>SUBSTRUCTURE
     1 ****       19 TEMP              0 ****  ****    0 ROOT 
