#	Name:			HYP2005-MC-1233-4-32
#	Creating user name:	Administrator
#	Creation time:		Sun Jul 05 16:45:44 2020

#	Modifying user name:	Administrator
#	Modification time:	Sun Jul 05 16:48:40 2020

@<TRIPOS>MOLECULE
HYP2005-MC-1233-4-32
   55    58     1     0     0
SMALL
MULLIKEN_CHARGES
INVALID_CHARGES
Gaussian 16 #p B3LYP/6-31G* opt
@<TRIPOS>ATOM
      1 C          -1.567723    4.358647   -2.707058 C.3       1 <1>        -0.443200 
      2 C          -2.169507    2.953561   -2.605695 C.3       1 <1>        -0.252400 
      3 C          -2.522443    2.522210   -1.164632 C.3       1 <1>        -0.350800 
      4 C          -1.360403    2.485368   -0.192318 C.ar      1 <1>        -0.013400 
      5 C          -0.450248    1.470529   -0.092081 C.ar      1 <1>         0.338900 
      6 C          -0.562084    0.211592   -0.925793 C.3       1 <1>        -0.455700 
      7 C           0.417660    0.039777   -2.083429 C.ar      1 <1>         0.100200 
      8 C           1.226123    1.074766   -2.507460 C.ar      1 <1>        -0.202100 
      9 C           2.117774    0.917648   -3.596529 C.ar      1 <1>        -0.138900 
     10 C           2.193607   -0.279825   -4.263029 C.ar      1 <1>        -0.187000 
     11 C           1.376059   -1.374653   -3.872075 C.ar      1 <1>         0.135600 
     12 C           1.437002   -2.619087   -4.553434 C.ar      1 <1>        -0.193200 
     13 C           0.637564   -3.675422   -4.179892 C.ar      1 <1>        -0.132300 
     14 C          -0.264266   -3.526645   -3.101846 C.ar      1 <1>        -0.133000 
     15 C          -0.345845   -2.332702   -2.417338 C.ar      1 <1>        -0.202000 
     16 C           0.468647   -1.220821   -2.770332 C.ar      1 <1>         0.077600 
     17 N           0.577172    1.509809    0.862677 N.ar      1 <1>        -0.539800 
     18 C           1.675356    0.552994    0.941610 C.3       1 <1>        -0.263200 
     19 C           3.005758    1.165684    0.460093 C.2       1 <1>         0.444900 
     20 O           3.023734    2.243706   -0.105901 O.2       1 <1>        -0.464700 
     21 C           4.256901    0.381979    0.684751 C.ar      1 <1>         0.086600 
     22 C           5.470424    0.950359    0.265482 C.ar      1 <1>        -0.148000 
     23 C           6.672397    0.274340    0.434561 C.ar      1 <1>        -0.132100 
     24 C           6.660635   -0.990464    1.027817 C.ar      1 <1>        -0.058000 
     25 CL          8.171487   -1.853754    1.243837 Cl        1 <1>        -0.003600 
     26 C           5.469986   -1.580373    1.451987 C.ar      1 <1>        -0.133500 
     27 C           4.273066   -0.888799    1.279445 C.ar      1 <1>        -0.175900 
     28 C           0.701543    2.550328    1.790556 C.ar      1 <1>         0.803900 
     29 O           1.566115    2.556960    2.653224 O.2       1 <1>        -0.525500 
     30 N          -0.234974    3.549164    1.656006 N.ar      1 <1>        -0.706400 
     31 C          -1.260312    3.638939    0.709593 C.ar      1 <1>         0.608200 
     32 O          -1.998916    4.615494    0.703977 O.2       1 <1>        -0.515700 
     33 H          -2.227853    5.106925   -2.255747 H         1 <1>         0.162700 
     34 H          -0.603666    4.420299   -2.189451 H         1 <1>         0.146400 
     35 H          -1.399640    4.634649   -3.754371 H         1 <1>         0.138000 
     36 H          -3.091649    2.908198   -3.200802 H         1 <1>         0.133600 
     37 H          -1.479168    2.225535   -3.051165 H         1 <1>         0.139100 
     38 H          -3.249027    3.231730   -0.757184 H         1 <1>         0.178600 
     39 H          -3.024410    1.547296   -1.198904 H         1 <1>         0.137300 
     40 H          -1.579479    0.168118   -1.324572 H         1 <1>         0.191100 
     41 H          -0.487075   -0.649372   -0.248540 H         1 <1>         0.168700 
     42 H           1.201683    2.026814   -1.988678 H         1 <1>         0.166000 
     43 H           2.742573    1.755092   -3.892907 H         1 <1>         0.141500 
     44 H           2.877112   -0.408964   -5.098661 H         1 <1>         0.133600 
     45 H           2.131180   -2.720986   -5.384228 H         1 <1>         0.134800 
     46 H           0.694527   -4.621121   -4.711674 H         1 <1>         0.134600 
     47 H          -0.899805   -4.359202   -2.812394 H         1 <1>         0.133200 
     48 H          -1.054575   -2.244586   -1.600306 H         1 <1>         0.129200 
     49 H           1.781723    0.232319    1.980769 H         1 <1>         0.204800 
     50 H           1.456540   -0.322980    0.331566 H         1 <1>         0.195100 
     51 H           5.447826    1.933346   -0.192791 H         1 <1>         0.176500 
     52 H           7.610077    0.715235    0.113738 H         1 <1>         0.165600 
     53 H           5.482605   -2.562954    1.910734 H         1 <1>         0.163400 
     54 H           3.354138   -1.357752    1.616225 H         1 <1>         0.146900 
     55 H          -0.149899    4.321060    2.307522 H         1 <1>         0.354000 
@<TRIPOS>BOND
     1   14   47 1    
     2   15   48 1    
     3    6   41 1    
     4   27   54 1    
     5   26   53 1    
     6   15   14 ar   
     7   14   13 ar   
     8   18   49 1    
     9   16   15 ar   
    10   18   50 1    
    11    6   40 1    
    12    3   39 1    
    13   13   46 1    
    14    5    6 1    
    15    6    7 1    
    16   18   17 1    
    17   19   18 1    
    18   27   26 ar   
    19   26   24 ar   
    20   21   27 ar   
    21   28   29 2    
    22   17   28 ar   
    23   17    5 ar   
    24   13   12 ar   
    25   28   30 ar   
    26    5    4 ar   
    27   30   55 1    
    28   30   31 ar   
    29    3   38 1    
    30    4    3 1    
    31    4   31 ar   
    32    3    2 1    
    33    7   16 ar   
    34   16   11 ar   
    35   31   32 2    
    36    7    8 ar   
    37   24   25 1    
    38   24   23 ar   
    39   21   19 1    
    40   21   22 ar   
    41   19   20 2    
    42   12   11 ar   
    43   12   45 1    
    44   11   10 ar   
    45    2   36 1    
    46    2   37 1    
    47    2    1 1    
    48    8   42 1    
    49    8    9 ar   
    50   22   23 ar   
    51   22   51 1    
    52   23   52 1    
    53   10    9 ar   
    54   10   44 1    
    55    1   33 1    
    56    1   34 1    
    57    1   35 1    
    58    9   43 1    
@<TRIPOS>SUBSTRUCTURE
     1 ****       53 TEMP              0 ****  ****    0 ROOT 
