#	Name:			HYP2005-MC-1233-4-26
#	Creating user name:	Administrator
#	Creation time:		Sun Jul 05 16:45:44 2020

#	Modifying user name:	Administrator
#	Modification time:	Sun Jul 05 16:48:40 2020

@<TRIPOS>MOLECULE
HYP2005-MC-1233-4-26
   55    58     1     0     0
SMALL
MULLIKEN_CHARGES
INVALID_CHARGES
Gaussian 16 #p B3LYP/6-31G* opt
@<TRIPOS>ATOM
      1 C          -3.852865    2.471271   -0.651158 C.3       1 <1>        -0.452100 
      2 C          -2.445515    2.541848   -1.277350 C.3       1 <1>        -0.143800 
      3 C          -2.304427    3.768069   -2.204007 C.3       1 <1>        -0.455500 
      4 C          -1.347098    2.497968   -0.219473 C.ar      1 <1>        -0.003300 
      5 C          -0.464264    1.462083   -0.074298 C.ar      1 <1>         0.324200 
      6 C          -0.543621    0.192182   -0.895780 C.3       1 <1>        -0.464300 
      7 C           0.369898    0.115396   -2.115294 C.ar      1 <1>         0.106800 
      8 C           1.094956    1.207354   -2.548728 C.ar      1 <1>        -0.197300 
      9 C           1.931779    1.137592   -3.688968 C.ar      1 <1>        -0.135500 
     10 C           2.038948   -0.033192   -4.397702 C.ar      1 <1>        -0.187100 
     11 C           1.309551   -1.185796   -3.998542 C.ar      1 <1>         0.136700 
     12 C           1.403185   -2.403950   -4.722362 C.ar      1 <1>        -0.193500 
     13 C           0.689876   -3.516443   -4.337770 C.ar      1 <1>        -0.131700 
     14 C          -0.153389   -3.454162   -3.204871 C.ar      1 <1>        -0.133000 
     15 C          -0.264851   -2.287711   -2.478813 C.ar      1 <1>        -0.201000 
     16 C           0.459445   -1.119205   -2.843967 C.ar      1 <1>         0.075400 
     17 N           0.576710    1.510185    0.863037 N.ar      1 <1>        -0.528100 
     18 C           1.555858    0.442250    1.032598 C.3       1 <1>        -0.284000 
     19 C           1.071407   -0.634399    2.012928 C.2       1 <1>         0.433700 
     20 O          -0.082758   -0.627893    2.408628 O.2       1 <1>        -0.459000 
     21 C           2.021375   -1.693255    2.476528 C.ar      1 <1>         0.016800 
     22 C           1.563608   -2.590435    3.460551 C.ar      1 <1>        -0.166600 
     23 C           2.365553   -3.604776    3.962983 C.ar      1 <1>        -0.194100 
     24 C           3.661480   -3.729860    3.464283 C.ar      1 <1>         0.404200 
     25 F           4.452275   -4.705240    3.936297 F         1 <1>        -0.281100 
     26 C           4.166849   -2.878781    2.489623 C.ar      1 <1>        -0.273900 
     27 C           3.332325   -1.875012    2.016371 C.ar      1 <1>         0.336500 
     28 F           3.834373   -1.061553    1.063007 F         1 <1>        -0.282800 
     29 C           0.701413    2.545656    1.793933 C.ar      1 <1>         0.793500 
     30 O           1.564002    2.563690    2.659691 O.2       1 <1>        -0.524900 
     31 N          -0.222920    3.552329    1.637880 N.ar      1 <1>        -0.700900 
     32 C          -1.261998    3.635164    0.703162 C.ar      1 <1>         0.604700 
     33 O          -2.005867    4.609517    0.727703 O.2       1 <1>        -0.515400 
     34 H          -4.616117    2.456948   -1.438508 H         1 <1>         0.137500 
     35 H          -3.972507    1.564095   -0.047100 H         1 <1>         0.137100 
     36 H          -4.034534    3.337818   -0.010748 H         1 <1>         0.183000 
     37 H          -2.329010    1.665218   -1.921134 H         1 <1>         0.129600 
     38 H          -3.062590    3.722941   -2.994847 H         1 <1>         0.137500 
     39 H          -2.437293    4.698158   -1.647758 H         1 <1>         0.185400 
     40 H          -1.319625    3.785692   -2.685240 H         1 <1>         0.135500 
     41 H          -1.579984    0.054685   -1.215326 H         1 <1>         0.193300 
     42 H          -0.350122   -0.654016   -0.229707 H         1 <1>         0.181100 
     43 H           1.022871    2.146922   -2.009264 H         1 <1>         0.141500 
     44 H           2.486433    2.019805   -3.995871 H         1 <1>         0.137300 
     45 H           2.679338   -0.095741   -5.274001 H         1 <1>         0.133900 
     46 H           2.052361   -2.440301   -5.594147 H         1 <1>         0.134300 
     47 H           0.770524   -4.441337   -4.902098 H         1 <1>         0.134700 
     48 H          -0.718977   -4.332416   -2.905578 H         1 <1>         0.134600 
     49 H          -0.923922   -2.265652   -1.617126 H         1 <1>         0.136900 
     50 H           1.806637   -0.001618    0.067224 H         1 <1>         0.202900 
     51 H           2.466629    0.897390    1.422320 H         1 <1>         0.223600 
     52 H           0.548890   -2.455817    3.819128 H         1 <1>         0.186000 
     53 H           2.013236   -4.291249    4.724722 H         1 <1>         0.163500 
     54 H           5.174466   -2.990322    2.107809 H         1 <1>         0.174700 
     55 H          -0.159007    4.314453    2.303282 H         1 <1>         0.352800 
@<TRIPOS>BOND
     1    1   35 1    
     2   14   48 1    
     3    1   34 1    
     4    1   36 1    
     5    2    1 1    
     6   15   49 1    
     7   22   52 1    
     8   23   53 1    
     9   15   14 ar   
    10   14   13 ar   
    11    6   41 1    
    12   16   15 ar   
    13   19   20 2    
    14   22   23 ar   
    15   21   22 ar   
    16   23   24 ar   
    17   13   47 1    
    18    2   37 1    
    19    6   42 1    
    20   12   13 ar   
    21    4    2 1    
    22    2    3 1    
    23    5    6 1    
    24    6    7 1    
    25    3   38 1    
    26   19   21 1    
    27   18   19 1    
    28    5    4 ar   
    29    4   32 ar   
    30   21   27 ar   
    31   24   25 1    
    32   24   26 ar   
    33    7   16 ar   
    34   16   11 ar   
    35   17    5 ar   
    36    3   39 1    
    37    3   40 1    
    38   32   33 2    
    39   32   31 ar   
    40    7    8 ar   
    41   11   12 ar   
    42   12   46 1    
    43   17   18 1    
    44   17   29 ar   
    45   11   10 ar   
    46   18   50 1    
    47   18   51 1    
    48   27   26 ar   
    49   27   28 1    
    50   31   29 ar   
    51   31   55 1    
    52   26   54 1    
    53   29   30 2    
    54    8   43 1    
    55    8    9 ar   
    56   10    9 ar   
    57   10   45 1    
    58    9   44 1    
@<TRIPOS>SUBSTRUCTURE
     1 ****       48 TEMP              0 ****  ****    0 ROOT 
