#	Name:			LJ-2006-CPB-1249-23
#	Creating user name:	Administrator
#	Creation time:		Sun Jul 05 16:45:55 2020

#	Modifying user name:	Administrator
#	Modification time:	Sun Jul 05 16:48:40 2020

@<TRIPOS>MOLECULE
LJ-2006-CPB-1249-23
   56    59     1     0     0
SMALL
MULLIKEN_CHARGES
INVALID_CHARGES
Gaussian 16 #p B3LYP/6-31G* opt
@<TRIPOS>ATOM
      1 C          -2.328256    3.695548   -2.247435 C.3       1 <1>        -0.458200 
      2 C          -2.436093    2.493291   -1.288628 C.3       1 <1>        -0.149400 
      3 C          -3.836854    2.399318   -0.650968 C.3       1 <1>        -0.453700 
      4 C          -1.342825    2.505116   -0.228514 C.ar      1 <1>         0.048200 
      5 C          -0.441736    1.493501   -0.082170 C.ar      1 <1>         0.202400 
      6 C          -0.564149    0.217135   -0.906539 C.2       1 <1>         0.295200 
      7 O          -1.190644   -0.688506   -0.372142 O.2       1 <1>        -0.442500 
      8 C          -0.023831    0.071774   -2.296835 C.ar      1 <1>         0.011800 
      9 C          -0.516059   -1.039207   -2.974811 C.ar      1 <1>        -0.159600 
     10 C          -0.151551   -1.328474   -4.300240 C.ar      1 <1>        -0.134700 
     11 C           0.725584   -0.497622   -4.958965 C.ar      1 <1>        -0.174900 
     12 C           1.277408    0.639913   -4.316489 C.ar      1 <1>         0.130200 
     13 C           2.198596    1.469889   -5.010849 C.ar      1 <1>        -0.191500 
     14 C           2.763719    2.566153   -4.404977 C.ar      1 <1>        -0.129200 
     15 C           2.426008    2.868258   -3.067489 C.ar      1 <1>        -0.139300 
     16 C           1.532754    2.086365   -2.366117 C.ar      1 <1>        -0.193600 
     17 C           0.913241    0.949546   -2.957426 C.ar      1 <1>         0.089600 
     18 N           0.548956    1.478193    0.896614 N.ar      1 <1>        -0.529200 
     19 C           1.519462    0.378131    1.037261 C.3       1 <1>        -0.189900 
     20 C           1.174976   -0.661152    2.072038 C.2       1 <1>        -0.117900 
     21 C          -0.015035   -0.826509    2.662154 C.2       1 <1>        -0.138500 
     22 C          -0.358980   -1.834261    3.677067 C.ar      1 <1>         0.165400 
     23 C           0.604851   -2.574985    4.385453 C.ar      1 <1>        -0.180400 
     24 C           0.224110   -3.527498    5.326342 C.ar      1 <1>        -0.130900 
     25 C          -1.129032   -3.759939    5.589541 C.ar      1 <1>        -0.128700 
     26 C          -2.097491   -3.025175    4.904683 C.ar      1 <1>        -0.129800 
     27 C          -1.714686   -2.071273    3.963100 C.ar      1 <1>        -0.191500 
     28 C           0.703068    2.537405    1.799639 C.ar      1 <1>         0.782100 
     29 O           1.585706    2.574480    2.639387 O.2       1 <1>        -0.508400 
     30 N          -0.228336    3.544784    1.638382 N.ar      1 <1>        -0.702700 
     31 C          -1.271113    3.634767    0.703573 C.ar      1 <1>         0.599800 
     32 O          -2.013741    4.608345    0.724723 O.2       1 <1>        -0.509900 
     33 H          -2.478325    4.635211   -1.710745 H         1 <1>         0.183100 
     34 H          -3.091232    3.617446   -3.030800 H         1 <1>         0.138900 
     35 H          -1.346620    3.724859   -2.734121 H         1 <1>         0.141300 
     36 H          -2.297698    1.588697   -1.892363 H         1 <1>         0.133900 
     37 H          -4.040290    3.276744   -0.031570 H         1 <1>         0.180000 
     38 H          -4.602511    2.343393   -1.433635 H         1 <1>         0.139500 
     39 H          -3.922879    1.502440   -0.027333 H         1 <1>         0.146500 
     40 H          -1.209790   -1.684456   -2.447041 H         1 <1>         0.176500 
     41 H          -0.567372   -2.200404   -4.796353 H         1 <1>         0.146600 
     42 H           1.014672   -0.703322   -5.986816 H         1 <1>         0.145200 
     43 H           2.451033    1.213719   -6.036788 H         1 <1>         0.139600 
     44 H           3.467539    3.193520   -4.944085 H         1 <1>         0.141600 
     45 H           2.876286    3.728405   -2.579924 H         1 <1>         0.144300 
     46 H           1.310955    2.357250   -1.344445 H         1 <1>         0.155900 
     47 H           2.475492    0.841282    1.296490 H         1 <1>         0.198200 
     48 H           1.648677   -0.085459    0.051658 H         1 <1>         0.172100 
     49 H           2.008976   -1.318119    2.315183 H         1 <1>         0.134300 
     50 H          -0.836451   -0.179754    2.361444 H         1 <1>         0.137900 
     51 H           1.661382   -2.390656    4.212684 H         1 <1>         0.127300 
     52 H           0.986161   -4.085257    5.864593 H         1 <1>         0.129200 
     53 H          -1.423202   -4.501203    6.327764 H         1 <1>         0.128900 
     54 H          -3.152683   -3.192571    5.104204 H         1 <1>         0.130400 
     55 H          -2.473586   -1.504127    3.429346 H         1 <1>         0.134400 
     56 H          -0.148275    4.317618    2.289972 H         1 <1>         0.354000 
@<TRIPOS>BOND
     1    3   38 1    
     2    3   39 1    
     3    3   37 1    
     4    2    3 1    
     5    1   34 1    
     6   10   41 1    
     7   26   54 1    
     8    9   40 1    
     9    2   36 1    
    10    2    1 1    
    11    4    2 1    
    12    9   10 ar   
    13   10   11 ar   
    14   27   55 1    
    15    1   33 1    
    16    1   35 1    
    17    8    9 ar   
    18   27   26 ar   
    19   26   25 ar   
    20    6    7 2    
    21   22   27 ar   
    22   11   42 1    
    23   12   11 ar   
    24   25   53 1    
    25    6    8 1    
    26    5    6 1    
    27    8   17 ar   
    28   24   25 ar   
    29    5    4 ar   
    30    4   31 ar   
    31   31   32 2    
    32   21   50 1    
    33   18    5 ar   
    34   17   12 ar   
    35   12   13 ar   
    36   30   31 ar   
    37   21   22 1    
    38   22   23 ar   
    39   17   16 ar   
    40   20   21 2    
    41   23   24 ar   
    42   24   52 1    
    43   13   43 1    
    44   13   14 ar   
    45   23   51 1    
    46   19   18 1    
    47   18   28 ar   
    48   30   56 1    
    49   28   30 ar   
    50   16   46 1    
    51   16   15 ar   
    52   20   19 1    
    53   20   49 1    
    54   19   48 1    
    55   19   47 1    
    56   28   29 2    
    57   14   15 ar   
    58   14   44 1    
    59   15   45 1    
@<TRIPOS>SUBSTRUCTURE
     1 ****       54 TEMP              0 ****  ****    0 ROOT 
