#	Name:			LJ-2006-CPB-1249-22
#	Creating user name:	Administrator
#	Creation time:		Sun Jul 05 16:45:55 2020

#	Modifying user name:	Administrator
#	Modification time:	Sun Jul 05 16:48:40 2020

@<TRIPOS>MOLECULE
LJ-2006-CPB-1249-22
   46    48     1     0     0
SMALL
MULLIKEN_CHARGES
INVALID_CHARGES
Gaussian 16 #p B3LYP/6-31G* opt
@<TRIPOS>ATOM
      1 C           1.576275   -0.881366    3.259417 C.2       1 <1>        -0.320200 
      2 C           0.974264   -0.656558    2.092265 C.2       1 <1>        -0.055400 
      3 C           1.482843    0.340376    1.083318 C.3       1 <1>        -0.218900 
      4 N           0.556539    1.484081    0.888507 N.ar      1 <1>        -0.527500 
      5 C          -0.442906    1.492075   -0.081219 C.ar      1 <1>         0.210000 
      6 C          -0.551600    0.221052   -0.916404 C.2       1 <1>         0.289600 
      7 O          -1.069172   -0.742106   -0.363921 O.2       1 <1>        -0.445100 
      8 C          -0.125845    0.150455   -2.349836 C.ar      1 <1>         0.013500 
      9 C          -0.707740   -0.893796   -3.061406 C.ar      1 <1>        -0.158000 
     10 C          -0.463461   -1.089054   -4.431372 C.ar      1 <1>        -0.135300 
     11 C           0.383860   -0.233855   -5.098240 C.ar      1 <1>        -0.174400 
     12 C           1.030582    0.831327   -4.420787 C.ar      1 <1>         0.129800 
     13 C           1.927155    1.682092   -5.121785 C.ar      1 <1>        -0.191500 
     14 C           2.588011    2.701035   -4.478685 C.ar      1 <1>        -0.128700 
     15 C           2.379048    2.899100   -3.095769 C.ar      1 <1>        -0.139500 
     16 C           1.511771    2.095645   -2.386624 C.ar      1 <1>        -0.193800 
     17 C           0.790859    1.042859   -3.016613 C.ar      1 <1>         0.093300 
     18 C          -1.349526    2.500329   -0.222733 C.ar      1 <1>         0.050100 
     19 C          -2.459515    2.485630   -1.265556 C.3       1 <1>        -0.150000 
     20 C          -2.360866    3.677850   -2.237597 C.3       1 <1>        -0.458000 
     21 C          -3.850821    2.407331   -0.604194 C.3       1 <1>        -0.454000 
     22 C          -1.270592    3.634442    0.704850 C.ar      1 <1>         0.601100 
     23 O          -2.013031    4.608401    0.725565 O.2       1 <1>        -0.510400 
     24 N          -0.220944    3.550003    1.630485 N.ar      1 <1>        -0.700700 
     25 C           0.703491    2.536926    1.797608 C.ar      1 <1>         0.785600 
     26 O           1.576946    2.570335    2.648571 O.2       1 <1>        -0.513400 
     27 H           2.466669   -0.333426    3.558172 H         1 <1>         0.157400 
     28 H           1.193954   -1.615792    3.963381 H         1 <1>         0.147400 
     29 H           0.068962   -1.191726    1.814671 H         1 <1>         0.167500 
     30 H           1.636831   -0.127943    0.106564 H         1 <1>         0.169800 
     31 H           2.432284    0.765270    1.410486 H         1 <1>         0.194600 
     32 H          -1.379908   -1.556961   -2.527805 H         1 <1>         0.173600 
     33 H          -0.949786   -1.906620   -4.955095 H         1 <1>         0.146600 
     34 H           0.577438   -0.365919   -6.160128 H         1 <1>         0.145400 
     35 H           2.084922    1.503499   -6.182564 H         1 <1>         0.139600 
     36 H           3.272607    3.344937   -5.023145 H         1 <1>         0.141700 
     37 H           2.911347    3.693241   -2.579626 H         1 <1>         0.144400 
     38 H           1.395781    2.277051   -1.327610 H         1 <1>         0.157800 
     39 H          -2.338496    1.574365   -1.862084 H         1 <1>         0.132300 
     40 H          -3.138533    3.597661   -3.006194 H         1 <1>         0.138300 
     41 H          -2.495393    4.623353   -1.706945 H         1 <1>         0.183000 
     42 H          -1.388094    3.696240   -2.741806 H         1 <1>         0.142300 
     43 H          -3.932374    1.520604    0.034344 H         1 <1>         0.146300 
     44 H          -4.628028    2.343269   -1.374978 H         1 <1>         0.139000 
     45 H          -4.041340    3.294416    0.005034 H         1 <1>         0.181200 
     46 H          -0.141370    4.321884    2.283240 H         1 <1>         0.353500 
@<TRIPOS>BOND
     1   14   36 1    
     2   15   37 1    
     3   15   14 ar   
     4   13   14 ar   
     5   16   15 ar   
     6   24   46 1    
     7   25   26 2    
     8   13   35 1    
     9   12   13 ar   
    10   16   38 1    
    11   17   16 ar   
    12   25   24 ar   
    13   22   24 ar   
    14    4   25 ar   
    15    3   31 1    
    16   22   23 2    
    17   20   42 1    
    18   18   22 ar   
    19   20   41 1    
    20   17   12 ar   
    21   12   11 ar   
    22    4    3 1    
    23    5    4 ar   
    24    8   17 ar   
    25    1   27 1    
    26    3   30 1    
    27    3    2 1    
    28   20   40 1    
    29   19   20 1    
    30    5   18 ar   
    31   18   19 1    
    32    6    5 1    
    33    2    1 2    
    34    1   28 1    
    35   11   34 1    
    36   11   10 ar   
    37    2   29 1    
    38    8    6 1    
    39    8    9 ar   
    40   19   39 1    
    41   19   21 1    
    42    6    7 2    
    43   21   45 1    
    44   21   44 1    
    45   21   43 1    
    46   10    9 ar   
    47   10   33 1    
    48    9   32 1    
@<TRIPOS>SUBSTRUCTURE
     1 ****       36 TEMP              0 ****  ****    0 ROOT 
