#	Name:			LJ-2006-CPB-1249-27
#	Creating user name:	Administrator
#	Creation time:		Sun Jul 05 16:45:56 2020

#	Modifying user name:	Administrator
#	Modification time:	Sun Jul 05 16:48:40 2020

@<TRIPOS>MOLECULE
LJ-2006-CPB-1249-27
   46    48     1     0     0
SMALL
MULLIKEN_CHARGES
INVALID_CHARGES
Gaussian 16 #p B3LYP/6-31G* opt
@<TRIPOS>ATOM
      1 C           4.028451    1.054673    0.605652 C.2       1 <1>        -0.321000 
      2 C           2.825054    0.809319    0.089190 C.2       1 <1>        -0.054800 
      3 C           1.625039    0.452875    0.928293 C.3       1 <1>        -0.223500 
      4 N           0.565805    1.490778    0.877931 N.ar      1 <1>        -0.533000 
      5 C          -0.442377    1.492113   -0.079455 C.ar      1 <1>         0.218300 
      6 C          -0.405737    0.328726   -1.075674 C.2       1 <1>         0.308400 
      7 O           0.356715    0.450909   -2.026567 O.2       1 <1>        -0.462500 
      8 C          -1.272137   -0.852193   -0.823847 C.ar      1 <1>         0.058000 
      9 C          -1.985692   -0.887461    0.371053 C.ar      1 <1>        -0.193300 
     10 C          -2.810569   -1.974021    0.716965 C.ar      1 <1>        -0.136600 
     11 C          -2.929851   -3.036484   -0.148388 C.ar      1 <1>        -0.171800 
     12 C          -2.233401   -3.057752   -1.385152 C.ar      1 <1>         0.133200 
     13 C          -2.375666   -4.162464   -2.266029 C.ar      1 <1>        -0.195100 
     14 C          -1.708841   -4.196774   -3.468278 C.ar      1 <1>        -0.125900 
     15 C          -0.871896   -3.118586   -3.830839 C.ar      1 <1>        -0.134700 
     16 C          -0.708063   -2.029454   -2.999293 C.ar      1 <1>        -0.188700 
     17 C          -1.380797   -1.958578   -1.748855 C.ar      1 <1>         0.070300 
     18 C          -1.358404    2.493201   -0.211162 C.ar      1 <1>         0.034900 
     19 C          -2.440021    2.489719   -1.283537 C.3       1 <1>        -0.148500 
     20 C          -3.858408    2.516209   -0.681296 C.3       1 <1>        -0.455100 
     21 C          -2.232848    3.636988   -2.293075 C.3       1 <1>        -0.453600 
     22 C          -1.270437    3.635317    0.703740 C.ar      1 <1>         0.603100 
     23 O          -2.002382    4.617788    0.713086 O.2       1 <1>        -0.512300 
     24 N          -0.236507    3.537904    1.646235 N.ar      1 <1>        -0.700800 
     25 C           0.708544    2.540474    1.791851 C.ar      1 <1>         0.788100 
     26 O           1.575736    2.569016    2.649408 O.2       1 <1>        -0.514100 
     27 H           4.878645    1.299306   -0.025655 H         1 <1>         0.147500 
     28 H           4.205830    1.028616    1.678014 H         1 <1>         0.157700 
     29 H           2.654999    0.863263   -0.984344 H         1 <1>         0.164100 
     30 H           1.906773    0.351199    1.976571 H         1 <1>         0.196000 
     31 H           1.176729   -0.489926    0.601707 H         1 <1>         0.169200 
     32 H          -1.908678   -0.053903    1.060577 H         1 <1>         0.162200 
     33 H          -3.346948   -1.964000    1.660720 H         1 <1>         0.147900 
     34 H          -3.565512   -3.882052    0.103582 H         1 <1>         0.146800 
     35 H          -3.025879   -4.981754   -1.969319 H         1 <1>         0.138200 
     36 H          -1.823757   -5.045310   -4.136731 H         1 <1>         0.139800 
     37 H          -0.345931   -3.144912   -4.781383 H         1 <1>         0.141800 
     38 H          -0.060038   -1.215964   -3.290789 H         1 <1>         0.187000 
     39 H          -2.345051    1.551607   -1.843344 H         1 <1>         0.134400 
     40 H          -4.605907    2.467236   -1.481741 H         1 <1>         0.140400 
     41 H          -4.020977    3.433801   -0.111110 H         1 <1>         0.184500 
     42 H          -4.022297    1.659577   -0.016892 H         1 <1>         0.132200 
     43 H          -2.990615    3.582321   -3.083631 H         1 <1>         0.139200 
     44 H          -2.318666    4.608080   -1.799064 H         1 <1>         0.180600 
     45 H          -1.245688    3.569566   -2.763627 H         1 <1>         0.148000 
     46 H          -0.151262    4.313623    2.293734 H         1 <1>         0.353500 
@<TRIPOS>BOND
     1   10   33 1    
     2   11   34 1    
     3   10   11 ar   
     4    9   10 ar   
     5   12   11 ar   
     6    9   32 1    
     7    8    9 ar   
     8    3   30 1    
     9   13   35 1    
    10   25   26 2    
    11   20   42 1    
    12   24   46 1    
    13   12   13 ar   
    14   17   12 ar   
    15   25   24 ar   
    16    4   25 ar   
    17    3   31 1    
    18   24   22 ar   
    19   13   14 ar   
    20    3    4 1    
    21    2    3 1    
    22    4    5 ar   
    23   20   41 1    
    24    8   17 ar   
    25    6    8 1    
    26   20   40 1    
    27   19   20 1    
    28   22   23 2    
    29   18   22 ar   
    30    1   28 1    
    31   17   16 ar   
    32    5   18 ar   
    33    5    6 1    
    34   18   19 1    
    35    6    7 2    
    36   14   36 1    
    37   14   15 ar   
    38    2    1 2    
    39    2   29 1    
    40    1   27 1    
    41   19   39 1    
    42   19   21 1    
    43   16   15 ar   
    44   16   38 1    
    45   15   37 1    
    46   21   44 1    
    47   21   43 1    
    48   21   45 1    
@<TRIPOS>SUBSTRUCTURE
     1 ****       30 TEMP              0 ****  ****    0 ROOT 
