#	Name:			LJ-2007-EJMC-198-21
#	Creating user name:	Administrator
#	Creation time:		Sun Jul 05 16:45:57 2020

#	Modifying user name:	Administrator
#	Modification time:	Sun Jul 05 16:48:40 2020

@<TRIPOS>MOLECULE
LJ-2007-EJMC-198-21
   53    56     1     0     0
SMALL
MULLIKEN_CHARGES
INVALID_CHARGES
Gaussian 16 #p B3LYP/6-31G* opt
@<TRIPOS>ATOM
      1 C          -3.899415    2.389088   -0.607299 C.3       1 <1>        -0.455900 
      2 C          -2.491104    2.544343   -1.208619 C.3       1 <1>        -0.328400 
      3 C          -1.375430    2.481478   -0.188778 C.ar      1 <1>         0.039400 
      4 C          -0.456384    1.482676   -0.080997 C.ar      1 <1>         0.222500 
      5 C          -0.422923    0.340031   -1.091787 C.2       1 <1>         0.321200 
      6 O           0.508960    0.351070   -1.885935 O.2       1 <1>        -0.447900 
      7 C          -1.514209   -0.676504   -1.201232 C.ar      1 <1>         0.021600 
      8 C          -1.646725   -1.232919   -2.468278 C.ar      1 <1>        -0.161200 
      9 C          -2.651786   -2.169988   -2.766977 C.ar      1 <1>        -0.135700 
     10 C          -3.528212   -2.564599   -1.782067 C.ar      1 <1>        -0.175200 
     11 C          -3.419981   -2.056962   -0.461857 C.ar      1 <1>         0.129500 
     12 C          -4.310437   -2.501402    0.552930 C.ar      1 <1>        -0.192300 
     13 C          -4.198692   -2.044804    1.844359 C.ar      1 <1>        -0.129100 
     14 C          -3.174645   -1.127226    2.171471 C.ar      1 <1>        -0.144000 
     15 C          -2.297072   -0.672881    1.210636 C.ar      1 <1>        -0.182000 
     16 C          -2.393955   -1.099929   -0.142682 C.ar      1 <1>         0.090000 
     17 N           0.593501    1.513963    0.845766 N.ar      1 <1>        -0.551900 
     18 C           1.628175    0.453796    0.867334 C.3       1 <1>         0.044000 
     19 O           1.102944   -0.786193    1.257771 O.3       1 <1>        -0.464000 
     20 C           1.011560   -0.978780    2.685538 C.3       1 <1>        -0.139500 
     21 C           2.352723   -1.259063    3.323324 C.ar      1 <1>         0.133200 
     22 C           2.982759   -0.302912    4.128882 C.ar      1 <1>        -0.185200 
     23 C           4.226567   -0.572776    4.705966 C.ar      1 <1>        -0.132300 
     24 C           4.851467   -1.798861    4.479491 C.ar      1 <1>        -0.126100 
     25 C           4.232263   -2.756350    3.670302 C.ar      1 <1>        -0.131400 
     26 C           2.991663   -2.486686    3.096670 C.ar      1 <1>        -0.162900 
     27 C           0.707867    2.539064    1.789949 C.ar      1 <1>         0.779700 
     28 O           1.560060    2.563927    2.666677 O.2       1 <1>        -0.522600 
     29 N          -0.233255    3.539519    1.652772 N.ar      1 <1>        -0.698000 
     30 C          -1.265485    3.635763    0.711383 C.ar      1 <1>         0.604500 
     31 O          -1.990897    4.620202    0.694863 O.2       1 <1>        -0.504100 
     32 H          -4.086612    3.170362    0.133776 H         1 <1>         0.176500 
     33 H          -4.022713    1.413438   -0.127111 H         1 <1>         0.152700 
     34 H          -4.655473    2.478662   -1.395390 H         1 <1>         0.144000 
     35 H          -2.336172    1.793866   -1.988432 H         1 <1>         0.145500 
     36 H          -2.428261    3.524554   -1.696852 H         1 <1>         0.170600 
     37 H          -0.955941   -0.911226   -3.240154 H         1 <1>         0.170500 
     38 H          -2.734617   -2.569317   -3.773441 H         1 <1>         0.144400 
     39 H          -4.316538   -3.281403   -1.999525 H         1 <1>         0.142900 
     40 H          -5.081313   -3.219817    0.285293 H         1 <1>         0.137800 
     41 H          -4.883621   -2.391538    2.612766 H         1 <1>         0.139200 
     42 H          -3.073628   -0.777719    3.195331 H         1 <1>         0.138800 
     43 H          -1.513906    0.011052    1.502830 H         1 <1>         0.158000 
     44 H           2.411701    0.811046    1.535210 H         1 <1>         0.201700 
     45 H           2.009346    0.332120   -0.143560 H         1 <1>         0.203500 
     46 H           0.338024   -1.833314    2.795620 H         1 <1>         0.160500 
     47 H           0.537670   -0.107378    3.155116 H         1 <1>         0.148100 
     48 H           2.504333    0.659676    4.289325 H         1 <1>         0.163500 
     49 H           4.705914    0.177526    5.329069 H         1 <1>         0.134300 
     50 H           5.817947   -2.010099    4.929754 H         1 <1>         0.131200 
     51 H           4.716207   -3.712837    3.490762 H         1 <1>         0.131300 
     52 H           2.510713   -3.229931    2.464834 H         1 <1>         0.134200 
     53 H          -0.147169    4.309382    2.307004 H         1 <1>         0.354800 
@<TRIPOS>BOND
     1    8   37 1    
     2    5    6 2    
     3    9   38 1    
     4   18   45 1    
     5    8    9 ar   
     6    7    8 ar   
     7    9   10 ar   
     8    5    7 1    
     9    4    5 1    
    10    2   35 1    
    11   18   44 1    
    12   19   18 1    
    13   18   17 1    
    14    7   16 ar   
    15   25   51 1    
    16    2   36 1    
    17   17    4 ar   
    18    4    3 ar   
    19   20   19 1    
    20   17   27 ar   
    21   10   39 1    
    22   11   10 ar   
    23   26   52 1    
    24   26   25 ar   
    25   25   24 ar   
    26    3    2 1    
    27    2    1 1    
    28   24   50 1    
    29    3   30 ar   
    30   21   26 ar   
    31   24   23 ar   
    32   27   28 2    
    33   27   29 ar   
    34   16   11 ar   
    35   16   15 ar   
    36   21   20 1    
    37   21   22 ar   
    38   23   22 ar   
    39   23   49 1    
    40   30   29 ar   
    41   30   31 2    
    42   11   12 ar   
    43   20   46 1    
    44   20   47 1    
    45    1   34 1    
    46   29   53 1    
    47   22   48 1    
    48    1   33 1    
    49    1   32 1    
    50   15   43 1    
    51   15   14 ar   
    52   12   40 1    
    53   12   13 ar   
    54   14   13 ar   
    55   14   42 1    
    56   13   41 1    
@<TRIPOS>SUBSTRUCTURE
     1 ****       51 TEMP              0 ****  ****    0 ROOT 
