#	Name:			LJ-2007-EJMC-198-20
#	Creating user name:	Administrator
#	Creation time:		Sun Jul 05 16:45:57 2020

#	Modifying user name:	Administrator
#	Modification time:	Sun Jul 05 16:48:40 2020

@<TRIPOS>MOLECULE
LJ-2007-EJMC-198-20
   50    53     1     0     0
SMALL
MULLIKEN_CHARGES
INVALID_CHARGES
Gaussian 16 #p B3LYP/6-31G* opt
@<TRIPOS>ATOM
      1 C          -3.818439    2.038168   -0.556942 C.3       1 <1>        -0.447700 
      2 C          -2.497529    2.509755   -1.192132 C.3       1 <1>        -0.331500 
      3 C          -1.347678    2.500951   -0.211890 C.ar      1 <1>         0.020300 
      4 C          -0.443630    1.492896   -0.092881 C.ar      1 <1>         0.248100 
      5 C          -0.590404    0.218717   -0.930861 C.2       1 <1>         0.309000 
      6 O          -1.153686   -0.719435   -0.378888 O.2       1 <1>        -0.463400 
      7 C          -0.071297    0.207012   -2.319251 C.ar      1 <1>         0.057000 
      8 C           0.692684    1.294174   -2.732745 C.ar      1 <1>        -0.179400 
      9 C           1.242288    1.370010   -4.026041 C.ar      1 <1>        -0.139700 
     10 C           1.021173    0.346379   -4.918334 C.ar      1 <1>        -0.172200 
     11 C           0.249032   -0.788493   -4.557109 C.ar      1 <1>         0.132300 
     12 C           0.029043   -1.831760   -5.495232 C.ar      1 <1>        -0.195200 
     13 C          -0.719223   -2.936011   -5.160388 C.ar      1 <1>        -0.126500 
     14 C          -1.276569   -3.032165   -3.866387 C.ar      1 <1>        -0.135200 
     15 C          -1.082333   -2.038690   -2.928365 C.ar      1 <1>        -0.189400 
     16 C          -0.314212   -0.883101   -3.237873 C.ar      1 <1>         0.071300 
     17 N           0.550798    1.479647    0.887933 N.ar      1 <1>        -0.565100 
     18 C           1.565926    0.443675    0.951677 C.3       1 <1>         0.090800 
     19 O           2.622555    0.786333    0.079453 O.3       1 <1>        -0.484200 
     20 C           3.749499   -0.071687    0.233520 C.3       1 <1>        -0.014700 
     21 C           4.919048    0.457986   -0.565583 C.3       1 <1>        -0.127500 
     22 C           4.724715    1.133859   -1.898299 C.3       1 <1>        -0.317600 
     23 C           5.163845    1.938909   -0.695463 C.3       1 <1>        -0.309400 
     24 C           0.707437    2.541743    1.795302 C.ar      1 <1>         0.796500 
     25 O           1.579113    2.571137    2.645924 O.2       1 <1>        -0.508700 
     26 N          -0.225325    3.548565    1.644821 N.ar      1 <1>        -0.704700 
     27 C          -1.267211    3.636525    0.711764 C.ar      1 <1>         0.610000 
     28 O          -2.013527    4.605127    0.710663 O.2       1 <1>        -0.506900 
     29 H          -3.732610    1.007356   -0.196269 H         1 <1>         0.155800 
     30 H          -4.089142    2.680135    0.286758 H         1 <1>         0.169100 
     31 H          -4.631664    2.079562   -1.290235 H         1 <1>         0.145600 
     32 H          -2.262476    1.886032   -2.060270 H         1 <1>         0.143300 
     33 H          -2.622061    3.535452   -1.555588 H         1 <1>         0.169800 
     34 H           0.879597    2.105867   -2.039345 H         1 <1>         0.166400 
     35 H           1.834095    2.234893   -4.309342 H         1 <1>         0.149500 
     36 H           1.437596    0.392486   -5.921916 H         1 <1>         0.145700 
     37 H           0.465056   -1.737621   -6.486773 H         1 <1>         0.137300 
     38 H          -0.883116   -3.729359   -5.884157 H         1 <1>         0.138500 
     39 H          -1.869142   -3.903921   -3.601945 H         1 <1>         0.140400 
     40 H          -1.511058   -2.132363   -1.941295 H         1 <1>         0.185600 
     41 H           1.915514    0.401662    1.987051 H         1 <1>         0.181400 
     42 H           1.116575   -0.516156    0.676803 H         1 <1>         0.167700 
     43 H           4.023411   -0.129987    1.300211 H         1 <1>         0.136000 
     44 H           3.490599   -1.092105   -0.097749 H         1 <1>         0.129200 
     45 H           5.799877   -0.174814   -0.467080 H         1 <1>         0.140800 
     46 H           5.449748    0.934350   -2.683054 H         1 <1>         0.145000 
     47 H           3.706352    1.268510   -2.248407 H         1 <1>         0.163400 
     48 H           6.189194    2.296379   -0.654702 H         1 <1>         0.147600 
     49 H           4.432609    2.603112   -0.245309 H         1 <1>         0.170200 
     50 H          -0.138668    4.319701    2.297535 H         1 <1>         0.355100 
@<TRIPOS>BOND
     1   14   39 1    
     2   18   41 1    
     3   18   42 1    
     4   15   40 1    
     5   20   43 1    
     6    5    6 2    
     7   20   44 1    
     8   15   14 ar   
     9   14   13 ar   
    10   17   18 1    
    11   18   19 1    
    12   16   15 ar   
    13   19   20 1    
    14   20   21 1    
    15    1   29 1    
    16   24   25 2    
    17   13   38 1    
    18   17   24 ar   
    19    4   17 ar   
    20    4    5 1    
    21    5    7 1    
    22   21   45 1    
    23   13   12 ar   
    24   26   24 ar   
    25    3    4 ar   
    26   21   23 1    
    27   21   22 1    
    28    7   16 ar   
    29   16   11 ar   
    30    1   30 1    
    31    1   31 1    
    32    2    1 1    
    33    7    8 ar   
    34   26   50 1    
    35   27   26 ar   
    36    3   27 ar   
    37    3    2 1    
    38   12   11 ar   
    39   12   37 1    
    40   11   10 ar   
    41   27   28 2    
    42    2   32 1    
    43    2   33 1    
    44   23   22 1    
    45   23   49 1    
    46   23   48 1    
    47   22   47 1    
    48   22   46 1    
    49    8   34 1    
    50    8    9 ar   
    51   10    9 ar   
    52   10   36 1    
    53    9   35 1    
@<TRIPOS>SUBSTRUCTURE
     1 ****       39 TEMP              0 ****  ****    0 ROOT 
