#	Name:			LJ-2006-CPB-1249-17
#	Creating user name:	Administrator
#	Creation time:		Sun Jul 05 16:45:55 2020

#	Modifying user name:	Administrator
#	Modification time:	Sun Jul 05 16:48:40 2020

@<TRIPOS>MOLECULE
LJ-2006-CPB-1249-17
   55    58     1     0     0
SMALL
MULLIKEN_CHARGES
INVALID_CHARGES
Gaussian 16 #p B3LYP/6-31G* opt
@<TRIPOS>ATOM
      1 C          -3.892261    2.308687   -0.573876 C.3       1 <1>        -0.453200 
      2 C          -2.498809    2.520102   -1.191886 C.3       1 <1>        -0.329800 
      3 C          -1.372814    2.480728   -0.182937 C.ar      1 <1>         0.033200 
      4 C          -0.453322    1.483015   -0.072928 C.ar      1 <1>         0.221400 
      5 C          -0.446735    0.336897   -1.074704 C.2       1 <1>         0.286900 
      6 O           0.411182    0.384016   -1.950386 O.2       1 <1>        -0.437000 
      7 C          -1.474793   -0.745027   -1.063853 C.ar      1 <1>         0.020500 
      8 C          -1.678255   -1.351784   -2.299296 C.ar      1 <1>        -0.158400 
      9 C          -2.640400   -2.359577   -2.481862 C.ar      1 <1>        -0.135700 
     10 C          -3.397500   -2.777753   -1.410923 C.ar      1 <1>        -0.173100 
     11 C          -3.209988   -2.221921   -0.119379 C.ar      1 <1>         0.129300 
     12 C          -3.973572   -2.695698    0.981369 C.ar      1 <1>        -0.190600 
     13 C          -3.781085   -2.194234    2.246459 C.ar      1 <1>        -0.128500 
     14 C          -2.802406   -1.197296    2.457259 C.ar      1 <1>        -0.137500 
     15 C          -2.049326   -0.710867    1.410222 C.ar      1 <1>        -0.193200 
     16 C          -2.230389   -1.186704    0.081905 C.ar      1 <1>         0.093700 
     17 N           0.599977    1.516899    0.845309 N.ar      1 <1>        -0.536800 
     18 C           1.572449    0.422087    1.016393 C.3       1 <1>        -0.252400 
     19 C           3.060631    0.830021    1.120701 C.2       1 <1>         0.414300 
     20 O           3.745898    0.189935    1.901084 O.2       1 <1>        -0.466700 
     21 C           3.637775    1.890474    0.255761 C.ar      1 <1>         0.072200 
     22 C           3.061257    2.317665   -0.955331 C.ar      1 <1>        -0.192500 
     23 C           3.686167    3.284373   -1.729871 C.ar      1 <1>        -0.188600 
     24 C           4.894312    3.860343   -1.306643 C.ar      1 <1>         0.387700 
     25 O           5.415885    4.808187   -2.130395 O.3       1 <1>        -0.501200 
     26 C           6.642161    5.425730   -1.764508 C.3       1 <1>        -0.218800 
     27 C           5.481932    3.440934   -0.102947 C.ar      1 <1>        -0.199800 
     28 C           4.856126    2.458352    0.656121 C.ar      1 <1>        -0.156400 
     29 C           0.706126    2.544376    1.788749 C.ar      1 <1>         0.797400 
     30 O           1.554179    2.543472    2.665054 O.2       1 <1>        -0.504600 
     31 N          -0.226238    3.552439    1.643532 N.ar      1 <1>        -0.707800 
     32 C          -1.266553    3.639076    0.711167 C.ar      1 <1>         0.605400 
     33 O          -2.001378    4.616587    0.693687 O.2       1 <1>        -0.505800 
     34 H          -4.093597    3.072352    0.182143 H         1 <1>         0.177200 
     35 H          -3.975215    1.322616   -0.105377 H         1 <1>         0.149200 
     36 H          -4.663932    2.384091   -1.348210 H         1 <1>         0.145000 
     37 H          -2.474908    3.507264   -1.668535 H         1 <1>         0.172700 
     38 H          -2.327875    1.784468   -1.983469 H         1 <1>         0.143800 
     39 H          -1.079422   -1.012420   -3.137665 H         1 <1>         0.173200 
     40 H          -2.784423   -2.796226   -3.465536 H         1 <1>         0.148200 
     41 H          -4.150350   -3.552023   -1.537375 H         1 <1>         0.147000 
     42 H          -4.711003   -3.473985    0.801434 H         1 <1>         0.141000 
     43 H          -4.367419   -2.565235    3.081841 H         1 <1>         0.143500 
     44 H          -2.635680   -0.810246    3.458515 H         1 <1>         0.146900 
     45 H          -1.303907    0.043151    1.621187 H         1 <1>         0.156300 
     46 H           1.360161   -0.124582    1.938481 H         1 <1>         0.198100 
     47 H           1.470176   -0.262537    0.173655 H         1 <1>         0.199700 
     48 H           2.143489    1.870731   -1.322911 H         1 <1>         0.175100 
     49 H           3.259745    3.610291   -2.673229 H         1 <1>         0.143900 
     50 H           6.554089    5.960646   -0.810289 H         1 <1>         0.157400 
     51 H           6.864492    6.139337   -2.559673 H         1 <1>         0.173400 
     52 H           7.456417    4.693103   -1.695497 H         1 <1>         0.157100 
     53 H           6.415901    3.869258    0.242220 H         1 <1>         0.137300 
     54 H           5.303411    2.116673    1.583837 H         1 <1>         0.164100 
     55 H          -0.137756    4.323064    2.296610 H         1 <1>         0.356100 
@<TRIPOS>BOND
     1    9   40 1    
     2    8   39 1    
     3   23   49 1    
     4    8    9 ar   
     5    9   10 ar   
     6    2   38 1    
     7    2   37 1    
     8    1   36 1    
     9    7    8 ar   
    10   26   51 1    
    11    5    6 2    
    12    2    1 1    
    13    3    2 1    
    14   25   26 1    
    15   24   25 1    
    16   10   41 1    
    17   11   10 ar   
    18   23   24 ar   
    19   22   23 ar   
    20    1   35 1    
    21    1   34 1    
    22   26   52 1    
    23   26   50 1    
    24   22   48 1    
    25    5    7 1    
    26    7   16 ar   
    27    4    5 1    
    28   27   24 ar   
    29   21   22 ar   
    30    4    3 ar   
    31    3   32 ar   
    32   16   11 ar   
    33   11   12 ar   
    34   17    4 ar   
    35   32   33 2    
    36   16   15 ar   
    37   31   32 ar   
    38   27   53 1    
    39   28   27 ar   
    40   18   47 1    
    41   12   42 1    
    42   21   28 ar   
    43   19   21 1    
    44   12   13 ar   
    45   18   17 1    
    46   17   29 ar   
    47   28   54 1    
    48   29   31 ar   
    49   31   55 1    
    50   15   45 1    
    51   15   14 ar   
    52   18   19 1    
    53   18   46 1    
    54   19   20 2    
    55   29   30 2    
    56   13   14 ar   
    57   13   43 1    
    58   14   44 1    
@<TRIPOS>SUBSTRUCTURE
     1 ****       38 TEMP              0 ****  ****    0 ROOT 
