#	Name:			LJ-2006-CPB-1249-15
#	Creating user name:	Administrator
#	Creation time:		Sun Jul 05 16:45:55 2020

#	Modifying user name:	Administrator
#	Modification time:	Sun Jul 05 16:48:40 2020

@<TRIPOS>MOLECULE
LJ-2006-CPB-1249-15
   53    56     1     0     0
SMALL
MULLIKEN_CHARGES
INVALID_CHARGES
Gaussian 16 #p B3LYP/6-31G* opt
@<TRIPOS>ATOM
      1 C          -2.044163    3.396110   -2.474132 C.3       1 <1>        -0.448100 
      2 C          -2.436683    2.540977   -1.256197 C.3       1 <1>        -0.327700 
      3 C          -1.355046    2.496044   -0.202258 C.ar      1 <1>         0.017200 
      4 C          -0.446463    1.490577   -0.080674 C.ar      1 <1>         0.221000 
      5 C          -0.438545    0.336240   -1.086417 C.2       1 <1>         0.323700 
      6 O           0.180769    0.528323   -2.123994 O.2       1 <1>        -0.451500 
      7 C          -1.182813   -0.907524   -0.752744 C.ar      1 <1>         0.050200 
      8 C          -1.941995   -0.914575    0.413957 C.ar      1 <1>        -0.195700 
      9 C          -2.688901   -2.038907    0.812241 C.ar      1 <1>        -0.136000 
     10 C          -2.671604   -3.174018    0.035572 C.ar      1 <1>        -0.172700 
     11 C          -1.913230   -3.231592   -1.163003 C.ar      1 <1>         0.133100 
     12 C          -1.905101   -4.415384   -1.947531 C.ar      1 <1>        -0.195500 
     13 C          -1.172815   -4.486863   -3.109435 C.ar      1 <1>        -0.125900 
     14 C          -0.419115   -3.368037   -3.527213 C.ar      1 <1>        -0.135200 
     15 C          -0.404707   -2.200386   -2.791897 C.ar      1 <1>        -0.189100 
     16 C          -1.149548   -2.089128   -1.585907 C.ar      1 <1>         0.070000 
     17 N           0.567856    1.491632    0.872646 N.ar      1 <1>        -0.538600 
     18 C           1.585314    0.430740    0.957266 C.3       1 <1>        -0.200400 
     19 C           2.837104    0.671409    0.153209 C.2       1 <1>        -0.119000 
     20 C           3.022966    1.635183   -0.756891 C.2       1 <1>        -0.143200 
     21 C           4.242659    1.878377   -1.543082 C.ar      1 <1>         0.166800 
     22 C           5.489554    1.308091   -1.227647 C.ar      1 <1>        -0.180800 
     23 C           6.609952    1.560468   -2.014129 C.ar      1 <1>        -0.131000 
     24 C           6.515974    2.394570   -3.132050 C.ar      1 <1>        -0.128800 
     25 C           5.289470    2.977916   -3.451774 C.ar      1 <1>        -0.129800 
     26 C           4.168403    2.724579   -2.662899 C.ar      1 <1>        -0.192200 
     27 C           0.708767    2.540936    1.791971 C.ar      1 <1>         0.783300 
     28 O           1.572242    2.561242    2.652426 O.2       1 <1>        -0.509000 
     29 N          -0.228161    3.546825    1.644852 N.ar      1 <1>        -0.703400 
     30 C          -1.267141    3.639415    0.707661 C.ar      1 <1>         0.605600 
     31 O          -2.012075    4.609920    0.705011 O.2       1 <1>        -0.510300 
     32 H          -1.159690    2.981915   -2.969522 H         1 <1>         0.158600 
     33 H          -1.824361    4.422780   -2.165525 H         1 <1>         0.167600 
     34 H          -2.863951    3.427854   -3.200761 H         1 <1>         0.144300 
     35 H          -2.689639    1.526635   -1.583750 H         1 <1>         0.139800 
     36 H          -3.336570    2.964205   -0.796787 H         1 <1>         0.168400 
     37 H          -1.973273   -0.023500    1.031815 H         1 <1>         0.159700 
     38 H          -3.273195   -2.000978    1.726499 H         1 <1>         0.147400 
     39 H          -3.243334   -4.050725    0.330383 H         1 <1>         0.146200 
     40 H          -2.490755   -5.266201   -1.608221 H         1 <1>         0.137700 
     41 H          -1.171972   -5.396377   -3.703536 H         1 <1>         0.139400 
     42 H           0.160152   -3.424738   -4.444927 H         1 <1>         0.142200 
     43 H           0.172855   -1.352328   -3.129428 H         1 <1>         0.190000 
     44 H           1.114863   -0.514808    0.664382 H         1 <1>         0.171200 
     45 H           1.845788    0.340842    2.015373 H         1 <1>         0.202900 
     46 H           3.628787   -0.045226    0.368266 H         1 <1>         0.134700 
     47 H           2.196640    2.308384   -0.976853 H         1 <1>         0.137100 
     48 H           5.587760    0.676819   -0.349051 H         1 <1>         0.127000 
     49 H           7.564011    1.112033   -1.749204 H         1 <1>         0.129400 
     50 H           7.393307    2.593220   -3.741671 H         1 <1>         0.129200 
     51 H           5.204393    3.632748   -4.315003 H         1 <1>         0.130800 
     52 H           3.214123    3.178723   -2.919122 H         1 <1>         0.134800 
     53 H          -0.140299    4.317619    2.297650 H         1 <1>         0.354300 
@<TRIPOS>BOND
     1   18   45 1    
     2   27   28 2    
     3   19   46 1    
     4   22   48 1    
     5   18   44 1    
     6   18   19 1    
     7   17   18 1    
     8    9   38 1    
     9   19   20 2    
    10   10   39 1    
    11   17   27 ar   
    12   27   29 ar   
    13   23   49 1    
    14    9   10 ar   
    15    8    9 ar   
    16   11   10 ar   
    17    4   17 ar   
    18   22   23 ar   
    19   21   22 ar   
    20    8   37 1    
    21   29   53 1    
    22    7    8 ar   
    23   29   30 ar   
    24   23   24 ar   
    25   12   40 1    
    26   20   21 1    
    27   20   47 1    
    28   11   12 ar   
    29   16   11 ar   
    30   12   13 ar   
    31   21   26 ar   
    32    7   16 ar   
    33    5    7 1    
    34    4    5 1    
    35    4    3 ar   
    36   16   15 ar   
    37    5    6 2    
    38   30    3 ar   
    39   30   31 2    
    40   13   41 1    
    41   13   14 ar   
    42   24   50 1    
    43   24   25 ar   
    44    3    2 1    
    45   15   14 ar   
    46   15   43 1    
    47   14   42 1    
    48   26   25 ar   
    49   26   52 1    
    50   25   51 1    
    51    2   35 1    
    52    2   36 1    
    53    2    1 1    
    54    1   32 1    
    55    1   33 1    
    56    1   34 1    
@<TRIPOS>SUBSTRUCTURE
     1 ****       28 TEMP              0 ****  ****    0 ROOT 
