#	Name:			LJ-2007-EJMC-198-25
#	Creating user name:	Administrator
#	Creation time:		Sun Jul 05 16:45:57 2020

#	Modifying user name:	Administrator
#	Modification time:	Sun Jul 05 16:48:40 2020

@<TRIPOS>MOLECULE
LJ-2007-EJMC-198-25
   52    54     1     0     0
SMALL
MULLIKEN_CHARGES
INVALID_CHARGES
Gaussian 16 #p B3LYP/6-31G* opt
@<TRIPOS>ATOM
      1 C           0.653825   -3.139190    2.315017 C.3       1 <1>        -0.509200 
      2 C           1.149528   -2.065112    1.376323 C.2       1 <1>         0.196200 
      3 C           1.678827   -2.580297    0.060170 C.3       1 <1>        -0.525500 
      4 C           1.107857   -0.774074    1.741509 C.2       1 <1>        -0.171800 
      5 C           1.598585    0.417629    0.966494 C.3       1 <1>        -0.232800 
      6 N           0.577488    1.495514    0.867035 N.ar      1 <1>        -0.544800 
      7 C          -0.450358    1.482481   -0.073718 C.ar      1 <1>         0.231300 
      8 C          -0.430698    0.321370   -1.072137 C.2       1 <1>         0.319900 
      9 O           0.479873    0.317597   -1.892232 O.2       1 <1>        -0.465400 
     10 C          -1.495629   -0.712621   -0.993438 C.ar      1 <1>         0.054900 
     11 C          -2.242981   -0.787032    0.176620 C.ar      1 <1>        -0.180500 
     12 C          -3.235330   -1.767795    0.365987 C.ar      1 <1>        -0.139200 
     13 C          -3.494565   -2.673748   -0.636163 C.ar      1 <1>        -0.174300 
     14 C          -2.775123   -2.639803   -1.859436 C.ar      1 <1>         0.131600 
     15 C          -3.066683   -3.574111   -2.888584 C.ar      1 <1>        -0.195700 
     16 C          -2.381840   -3.548115   -4.080837 C.ar      1 <1>        -0.126900 
     17 C          -1.375347   -2.578254   -4.284930 C.ar      1 <1>        -0.135900 
     18 C          -1.061682   -1.657983   -3.306066 C.ar      1 <1>        -0.187600 
     19 C          -1.746998   -1.654916   -2.059835 C.ar      1 <1>         0.072000 
     20 C          -1.357869    2.494277   -0.211114 C.ar      1 <1>         0.033500 
     21 C          -2.420993    2.527995   -1.303025 C.3       1 <1>        -0.147100 
     22 C          -3.851525    2.563347   -0.731425 C.3       1 <1>        -0.456000 
     23 C          -2.177199    3.695128   -2.282736 C.3       1 <1>        -0.454000 
     24 C          -1.267712    3.636864    0.704748 C.ar      1 <1>         0.604700 
     25 O          -2.000863    4.618759    0.716480 O.2       1 <1>        -0.512300 
     26 N          -0.234433    3.538925    1.643472 N.ar      1 <1>        -0.698700 
     27 C           0.706384    2.538153    1.789530 C.ar      1 <1>         0.781100 
     28 O           1.567341    2.571618    2.655201 O.2       1 <1>        -0.517600 
     29 H           0.309768   -2.725392    3.267807 H         1 <1>         0.155100 
     30 H          -0.176740   -3.698530    1.862474 H         1 <1>         0.155400 
     31 H           1.444379   -3.871912    2.527588 H         1 <1>         0.155900 
     32 H           1.904346   -1.793475   -0.662432 H         1 <1>         0.169600 
     33 H           0.950371   -3.257993   -0.403619 H         1 <1>         0.160300 
     34 H           2.594266   -3.167210    0.218310 H         1 <1>         0.158800 
     35 H           0.718555   -0.527992    2.729566 H         1 <1>         0.131300 
     36 H           1.926920    0.171961   -0.041023 H         1 <1>         0.193100 
     37 H           2.433755    0.882767    1.494317 H         1 <1>         0.209500 
     38 H          -2.049346   -0.080103    0.975392 H         1 <1>         0.159400 
     39 H          -3.789394   -1.799805    1.299124 H         1 <1>         0.145800 
     40 H          -4.261553   -3.433693   -0.505936 H         1 <1>         0.144600 
     41 H          -3.848157   -4.309803   -2.714589 H         1 <1>         0.137000 
     42 H          -2.612778   -4.265435   -4.863275 H         1 <1>         0.138500 
     43 H          -0.836795   -2.555365   -5.228418 H         1 <1>         0.140500 
     44 H          -0.280322   -0.931489   -3.476184 H         1 <1>         0.182700 
     45 H          -2.329012    1.604504   -1.884761 H         1 <1>         0.134900 
     46 H          -4.580980    2.549666   -1.549844 H         1 <1>         0.139700 
     47 H          -4.045250    1.691729   -0.095684 H         1 <1>         0.134100 
     48 H          -4.011453    3.467962   -0.140142 H         1 <1>         0.184300 
     49 H          -2.268940    4.657103   -1.772574 H         1 <1>         0.181700 
     50 H          -1.178726    3.630477   -2.729784 H         1 <1>         0.144800 
     51 H          -2.914236    3.661008   -3.093693 H         1 <1>         0.139700 
     52 H          -0.151247    4.309771    2.296928 H         1 <1>         0.353400 
@<TRIPOS>BOND
     1   17   43 1    
     2   18   44 1    
     3   23   50 1    
     4    8    9 2    
     5    3   32 1    
     6   18   17 ar   
     7   17   16 ar   
     8    5   36 1    
     9   19   18 ar   
    10    3   34 1    
    11    5   37 1    
    12   23   51 1    
    13   23   49 1    
    14   21   23 1    
    15    3   33 1    
    16    2    3 1    
    17   16   42 1    
    18    5    6 1    
    19    4    5 1    
    20    7    8 1    
    21    8   10 1    
    22   16   15 ar   
    23    6    7 ar   
    24    6   27 ar   
    25    7   20 ar   
    26   21   45 1    
    27   10   19 ar   
    28   19   14 ar   
    29   27   28 2    
    30   27   26 ar   
    31   20   21 1    
    32   20   24 ar   
    33   21   22 1    
    34   10   11 ar   
    35    2    4 2    
    36    2    1 1    
    37    4   35 1    
    38   26   24 ar   
    39   26   52 1    
    40   24   25 2    
    41   15   14 ar   
    42   15   41 1    
    43   14   13 ar   
    44    1   31 1    
    45   22   46 1    
    46    1   30 1    
    47    1   29 1    
    48   22   48 1    
    49   22   47 1    
    50   11   38 1    
    51   11   12 ar   
    52   13   12 ar   
    53   13   40 1    
    54   12   39 1    
@<TRIPOS>SUBSTRUCTURE
     1 ****       32 TEMP              0 ****  ****    0 ROOT 
