#	Name:			LJ-2007-EJMC-198-26
#	Creating user name:	Administrator
#	Creation time:		Sun Jul 05 16:45:58 2020

#	Modifying user name:	Administrator
#	Modification time:	Sun Jul 05 16:48:40 2020

@<TRIPOS>MOLECULE
LJ-2007-EJMC-198-26
   56    59     1     0     0
SMALL
MULLIKEN_CHARGES
INVALID_CHARGES
Gaussian 16 #p B3LYP/6-31G* opt
@<TRIPOS>ATOM
      1 C          -3.839714    2.413936   -0.618888 C.3       1 <1>        -0.454400 
      2 C          -2.449147    2.512055   -1.280433 C.3       1 <1>        -0.150200 
      3 C          -2.359032    3.724279   -2.228235 C.3       1 <1>        -0.460700 
      4 C          -1.341172    2.507291   -0.234625 C.ar      1 <1>         0.051000 
      5 C          -0.437710    1.495874   -0.095971 C.ar      1 <1>         0.210600 
      6 C          -0.531791    0.233369   -0.950419 C.2       1 <1>         0.323200 
      7 O          -0.960863   -0.761068   -0.378977 O.2       1 <1>        -0.451700 
      8 C          -0.218533    0.205887   -2.413628 C.ar      1 <1>         0.019100 
      9 C          -0.816146   -0.847330   -3.097158 C.ar      1 <1>        -0.159800 
     10 C          -0.676774   -1.008779   -4.486642 C.ar      1 <1>        -0.135100 
     11 C           0.076926   -0.107700   -5.203052 C.ar      1 <1>        -0.175400 
     12 C           0.733868    0.970946   -4.557244 C.ar      1 <1>         0.128800 
     13 C           1.533068    1.873782   -5.309780 C.ar      1 <1>        -0.192300 
     14 C           2.201660    2.907897   -4.699867 C.ar      1 <1>        -0.129200 
     15 C           2.101738    3.068549   -3.299585 C.ar      1 <1>        -0.144300 
     16 C           1.332505    2.212411   -2.540749 C.ar      1 <1>        -0.181900 
     17 C           0.604216    1.144290   -3.134268 C.ar      1 <1>         0.094200 
     18 N           0.534451    1.466816    0.910979 N.ar      1 <1>        -0.547900 
     19 C           1.427472    0.296984    1.081227 C.3       1 <1>         0.043900 
     20 O           2.304096    0.142931   -0.001581 O.3       1 <1>        -0.463600 
     21 C           3.494702    0.956599    0.067441 C.3       1 <1>        -0.139300 
     22 C           4.506219    0.426771    1.057511 C.ar      1 <1>         0.133500 
     23 C           4.740701    1.083709    2.271489 C.ar      1 <1>        -0.185500 
     24 C           5.672919    0.577638    3.181275 C.ar      1 <1>        -0.132300 
     25 C           6.375601   -0.590324    2.886064 C.ar      1 <1>        -0.126200 
     26 C           6.142346   -1.256293    1.678872 C.ar      1 <1>        -0.131300 
     27 C           5.213573   -0.750110    0.772219 C.ar      1 <1>        -0.163000 
     28 C           0.703545    2.535894    1.795370 C.ar      1 <1>         0.780100 
     29 O           1.584029    2.586552    2.642551 O.2       1 <1>        -0.522600 
     30 N          -0.218312    3.548347    1.630389 N.ar      1 <1>        -0.697800 
     31 C          -1.270065    3.632451    0.706909 C.ar      1 <1>         0.603100 
     32 O          -2.014789    4.603367    0.736032 O.2       1 <1>        -0.505500 
     33 H          -3.916527    1.516174    0.004868 H         1 <1>         0.146000 
     34 H          -4.615854    2.357227   -1.391072 H         1 <1>         0.140700 
     35 H          -4.037227    3.289526    0.004572 H         1 <1>         0.180300 
     36 H          -2.325428    1.614083   -1.894429 H         1 <1>         0.135900 
     37 H          -1.385638    3.763005   -2.729196 H         1 <1>         0.145800 
     38 H          -3.133238    3.648708   -3.000804 H         1 <1>         0.139000 
     39 H          -2.507039    4.658441   -1.681445 H         1 <1>         0.181800 
     40 H          -1.415825   -1.547164   -2.525557 H         1 <1>         0.172000 
     41 H          -1.171216   -1.837071   -4.985488 H         1 <1>         0.144300 
     42 H           0.186800   -0.212305   -6.279850 H         1 <1>         0.143000 
     43 H           1.609106    1.723445   -6.383938 H         1 <1>         0.137700 
     44 H           2.810342    3.592091   -5.284011 H         1 <1>         0.139300 
     45 H           2.641904    3.875094   -2.811414 H         1 <1>         0.139300 
     46 H           1.298310    2.358125   -1.471345 H         1 <1>         0.155000 
     47 H           1.945142    0.448763    2.028296 H         1 <1>         0.202300 
     48 H           0.811006   -0.598009    1.119026 H         1 <1>         0.202200 
     49 H           3.229741    1.994282    0.306406 H         1 <1>         0.147700 
     50 H           3.891872    0.933380   -0.951077 H         1 <1>         0.161200 
     51 H           4.179209    1.983279    2.509635 H         1 <1>         0.163700 
     52 H           5.845817    1.096147    4.120533 H         1 <1>         0.134300 
     53 H           7.102313   -0.983167    3.592345 H         1 <1>         0.131200 
     54 H           6.687491   -2.167031    1.445215 H         1 <1>         0.131200 
     55 H           5.029754   -1.268994   -0.165765 H         1 <1>         0.134000 
     56 H          -0.132268    4.324501    2.277401 H         1 <1>         0.354600 
@<TRIPOS>BOND
     1    9   40 1    
     2    6    7 2    
     3   10   41 1    
     4   19   48 1    
     5    1   33 1    
     6    9   10 ar   
     7    8    9 ar   
     8   10   11 ar   
     9    6    8 1    
    10    5    6 1    
    11    1   34 1    
    12   19   47 1    
    13   20   19 1    
    14   19   18 1    
    15   26   54 1    
    16    1   35 1    
    17    2    1 1    
    18    8   17 ar   
    19    2   36 1    
    20   27   55 1    
    21   21   20 1    
    22   27   26 ar   
    23   26   25 ar   
    24   18    5 ar   
    25    5    4 ar   
    26   11   42 1    
    27   12   11 ar   
    28   18   28 ar   
    29   25   53 1    
    30   22   27 ar   
    31    4    2 1    
    32    2    3 1    
    33   25   24 ar   
    34    4   31 ar   
    35   17   12 ar   
    36   17   16 ar   
    37   22   21 1    
    38   22   23 ar   
    39   28   29 2    
    40   28   30 ar   
    41   24   23 ar   
    42   24   52 1    
    43   12   13 ar   
    44   21   50 1    
    45   21   49 1    
    46   23   51 1    
    47   31   30 ar   
    48   31   32 2    
    49    3   38 1    
    50   30   56 1    
    51    3   37 1    
    52    3   39 1    
    53   16   46 1    
    54   16   15 ar   
    55   13   43 1    
    56   13   14 ar   
    57   15   14 ar   
    58   15   45 1    
    59   14   44 1    
@<TRIPOS>SUBSTRUCTURE
     1 ****       54 TEMP              0 ****  ****    0 ROOT 
