#	Name:			LJ-2006-CPB-1249-21
#	Creating user name:	Administrator
#	Creation time:		Sun Jul 05 16:45:55 2020

#	Modifying user name:	Administrator
#	Modification time:	Sun Jul 05 16:48:40 2020

@<TRIPOS>MOLECULE
LJ-2006-CPB-1249-21
   50    52     1     0     0
SMALL
MULLIKEN_CHARGES
INVALID_CHARGES
Gaussian 16 #p B3LYP/6-31G* opt
@<TRIPOS>ATOM
      1 C          -2.305532    3.616009   -2.320634 C.3       1 <1>        -0.453300 
      2 C          -2.478176    2.553253   -1.221815 C.3       1 <1>        -0.326400 
      3 C          -1.340850    2.507068   -0.224974 C.ar      1 <1>         0.024200 
      4 C          -0.445301    1.490046   -0.094596 C.ar      1 <1>         0.251000 
      5 C          -0.573811    0.209182   -0.920394 C.2       1 <1>         0.327800 
      6 O          -0.882970   -0.808096   -0.311470 O.2       1 <1>        -0.468000 
      7 C          -0.350855    0.270335   -2.388368 C.ar      1 <1>         0.046400 
      8 C           0.473131    1.276238   -2.876609 C.ar      1 <1>        -0.178500 
      9 C           0.795228    1.370239   -4.244995 C.ar      1 <1>        -0.140900 
     10 C           0.266157    0.462451   -5.132904 C.ar      1 <1>        -0.174500 
     11 C          -0.593269   -0.578418   -4.692652 C.ar      1 <1>         0.130800 
     12 C          -1.142895   -1.501217   -5.622225 C.ar      1 <1>        -0.195500 
     13 C          -1.978244   -2.510795   -5.205016 C.ar      1 <1>        -0.127100 
     14 C          -2.295310   -2.632883   -3.833397 C.ar      1 <1>        -0.136300 
     15 C          -1.776342   -1.758387   -2.901880 C.ar      1 <1>        -0.185900 
     16 C          -0.909103   -0.702261   -3.296108 C.ar      1 <1>         0.077100 
     17 N           0.538425    1.476015    0.898742 N.ar      1 <1>        -0.568700 
     18 C           1.484444    0.370316    0.998225 C.3       1 <1>         0.073500 
     19 O           2.166421    0.280779   -0.239408 O.3       1 <1>        -0.483500 
     20 C           2.722003   -1.003479   -0.519132 C.3       1 <1>        -0.056700 
     21 C           4.011617   -1.263572    0.270955 C.3       1 <1>        -0.044400 
     22 O           4.587820   -2.512839   -0.067836 O.3       1 <1>        -0.458000 
     23 C           5.413709   -2.479790   -1.217053 C.3       1 <1>        -0.202300 
     24 C           0.707973    2.539379    1.794899 C.ar      1 <1>         0.783500 
     25 O           1.578647    2.576011    2.648429 O.2       1 <1>        -0.510900 
     26 N          -0.214551    3.554899    1.633330 N.ar      1 <1>        -0.699600 
     27 C          -1.262443    3.637257    0.710168 C.ar      1 <1>         0.608700 
     28 O          -2.021922    4.595918    0.725636 O.2       1 <1>        -0.504700 
     29 H          -2.194085    4.609388   -1.878460 H         1 <1>         0.177900 
     30 H          -1.428908    3.406347   -2.942440 H         1 <1>         0.144000 
     31 H          -3.186128    3.629222   -2.972541 H         1 <1>         0.146200 
     32 H          -3.391959    2.781871   -0.659875 H         1 <1>         0.171200 
     33 H          -2.627560    1.569845   -1.676447 H         1 <1>         0.147100 
     34 H           0.906646    1.988255   -2.183444 H         1 <1>         0.163700 
     35 H           1.456796    2.159701   -4.588738 H         1 <1>         0.144400 
     36 H           0.500572    0.528680   -6.192836 H         1 <1>         0.142800 
     37 H          -0.891448   -1.389557   -6.674191 H         1 <1>         0.136000 
     38 H          -2.395037   -3.211036   -5.923364 H         1 <1>         0.137600 
     39 H          -2.956766   -3.430213   -3.505194 H         1 <1>         0.139600 
     40 H          -2.016272   -1.878596   -1.854685 H         1 <1>         0.177400 
     41 H           2.150341    0.615488    1.826296 H         1 <1>         0.198600 
     42 H           0.942313   -0.559607    1.201667 H         1 <1>         0.178000 
     43 H           2.924317   -1.001344   -1.593873 H         1 <1>         0.155300 
     44 H           1.988158   -1.795563   -0.312157 H         1 <1>         0.156200 
     45 H           3.795239   -1.308932    1.344513 H         1 <1>         0.151600 
     46 H           4.717973   -0.434996    0.105517 H         1 <1>         0.135400 
     47 H           6.242621   -1.765001   -1.095756 H         1 <1>         0.136400 
     48 H           4.861502   -2.218818   -2.132289 H         1 <1>         0.133400 
     49 H           5.826699   -3.484706   -1.336325 H         1 <1>         0.164000 
     50 H          -0.129348    4.324582    2.287964 H         1 <1>         0.355800 
@<TRIPOS>BOND
     1   14   39 1    
     2   15   40 1    
     3    5    6 2    
     4   15   14 ar   
     5   14   13 ar   
     6   18   42 1    
     7   16   15 ar   
     8   13   38 1    
     9   20   44 1    
    10   13   12 ar   
    11    2   32 1    
    12    4    5 1    
    13    5    7 1    
    14    2   33 1    
    15   18   41 1    
    16   18   17 1    
    17   19   18 1    
    18   21   45 1    
    19   17    4 ar   
    20   17   24 ar   
    21    4    3 ar   
    22    7   16 ar   
    23   16   11 ar   
    24    3    2 1    
    25    2    1 1    
    26   21   22 1    
    27   22   23 1    
    28    3   27 ar   
    29   24   25 2    
    30   24   26 ar   
    31   20   21 1    
    32   20   19 1    
    33   20   43 1    
    34   27   26 ar   
    35   27   28 2    
    36   26   50 1    
    37   21   46 1    
    38    7    8 ar   
    39   12   11 ar   
    40   12   37 1    
    41   23   49 1    
    42   11   10 ar   
    43   23   48 1    
    44   23   47 1    
    45    1   31 1    
    46    1   29 1    
    47    1   30 1    
    48    8   34 1    
    49    8    9 ar   
    50   10    9 ar   
    51   10   36 1    
    52    9   35 1    
@<TRIPOS>SUBSTRUCTURE
     1 ****       44 TEMP              0 ****  ****    0 ROOT 
