#	Name:			LJ-2007-EJMC-198-24
#	Creating user name:	Administrator
#	Creation time:		Sun Jul 05 16:45:57 2020

#	Modifying user name:	Administrator
#	Modification time:	Sun Jul 05 16:48:40 2020

@<TRIPOS>MOLECULE
LJ-2007-EJMC-198-24
   53    55     1     0     0
SMALL
MULLIKEN_CHARGES
INVALID_CHARGES
Gaussian 16 #p B3LYP/6-31G* opt
@<TRIPOS>ATOM
      1 C          -3.861712    1.999588   -0.339941 C.3       1 <1>        -0.447600 
      2 C          -2.587113    2.445278   -1.080212 C.3       1 <1>        -0.329600 
      3 C          -1.375585    2.478969   -0.176389 C.ar      1 <1>         0.011700 
      4 C          -0.451686    1.483626   -0.079349 C.ar      1 <1>         0.243700 
      5 C          -0.641005    0.179370   -0.861473 C.2       1 <1>         0.316000 
      6 O          -1.135468   -0.747634   -0.230765 O.2       1 <1>        -0.463900 
      7 C          -0.228540    0.110557   -2.287635 C.ar      1 <1>         0.056900 
      8 C           0.276351    1.266154   -2.877638 C.ar      1 <1>        -0.198900 
      9 C           0.704889    1.297470   -4.217456 C.ar      1 <1>        -0.136900 
     10 C           0.631821    0.154310   -4.978818 C.ar      1 <1>        -0.172900 
     11 C           0.126548   -1.056600   -4.437419 C.ar      1 <1>         0.131900 
     12 C           0.059779   -2.224105   -5.243166 C.ar      1 <1>        -0.195200 
     13 C          -0.429219   -3.405070   -4.735807 C.ar      1 <1>        -0.126000 
     14 C          -0.871100   -3.455536   -3.395659 C.ar      1 <1>        -0.134300 
     15 C          -0.821534   -2.341005   -2.583124 C.ar      1 <1>        -0.190900 
     16 C          -0.321153   -1.102600   -3.071317 C.ar      1 <1>         0.067500 
     17 N           0.597685    1.509922    0.842546 N.ar      1 <1>        -0.566300 
     18 C           1.597296    0.425578    1.006910 C.3       1 <1>         0.083500 
     19 O           2.896224    0.791314    0.659141 O.3       1 <1>        -0.446200 
     20 C           3.160017    0.889751   -0.743902 C.3       1 <1>        -0.077800 
     21 C           4.617927    1.194038   -0.909846 C.2       1 <1>        -0.174100 
     22 C           5.497726    0.602410   -1.730714 C.2       1 <1>         0.192000 
     23 C           5.180277   -0.534508   -2.671410 C.3       1 <1>        -0.516400 
     24 C           6.934095    1.067057   -1.775662 C.3       1 <1>        -0.506600 
     25 C           0.710173    2.543584    1.788842 C.ar      1 <1>         0.790200 
     26 O           1.537179    2.540325    2.681300 O.2       1 <1>        -0.498900 
     27 N          -0.199745    3.571627    1.616012 N.ar      1 <1>        -0.702400 
     28 C          -1.264489    3.640529    0.711506 C.ar      1 <1>         0.608200 
     29 O          -2.013555    4.608008    0.707168 O.2       1 <1>        -0.510300 
     30 H          -3.749226    0.984498    0.056323 H         1 <1>         0.155200 
     31 H          -4.721794    2.010176   -1.019094 H         1 <1>         0.145200 
     32 H          -4.078225    2.676061    0.492276 H         1 <1>         0.170200 
     33 H          -2.411002    1.786312   -1.935647 H         1 <1>         0.139900 
     34 H          -2.740014    3.455076   -1.476074 H         1 <1>         0.169400 
     35 H           0.331030    2.176871   -2.291865 H         1 <1>         0.162500 
     36 H           1.088382    2.221722   -4.638516 H         1 <1>         0.148900 
     37 H           0.960452    0.161788   -6.015506 H         1 <1>         0.147100 
     38 H           0.404038   -2.163549   -6.272622 H         1 <1>         0.138500 
     39 H          -0.477395   -4.293423   -5.359082 H         1 <1>         0.140400 
     40 H          -1.259440   -4.387722   -2.994500 H         1 <1>         0.142600 
     41 H          -1.168732   -2.397996   -1.562177 H         1 <1>         0.188800 
     42 H           1.631679    0.182915    2.068226 H         1 <1>         0.193900 
     43 H           1.247092   -0.438294    0.435984 H         1 <1>         0.161300 
     44 H           2.553843    1.703675   -1.173272 H         1 <1>         0.133400 
     45 H           2.860883   -0.039400   -1.248514 H         1 <1>         0.132500 
     46 H           4.963409    2.009021   -0.274838 H         1 <1>         0.138100 
     47 H           4.157037   -0.906116   -2.579718 H         1 <1>         0.156300 
     48 H           5.329383   -0.225452   -3.715450 H         1 <1>         0.154400 
     49 H           5.863280   -1.377039   -2.497791 H         1 <1>         0.157300 
     50 H           7.209993    1.404862   -2.784553 H         1 <1>         0.150400 
     51 H           7.619137    0.245319   -1.524907 H         1 <1>         0.154600 
     52 H           7.119806    1.889771   -1.078780 H         1 <1>         0.158400 
     53 H          -0.122691    4.332168    2.282428 H         1 <1>         0.353900 
@<TRIPOS>BOND
     1   14   40 1    
     2   18   42 1    
     3   15   41 1    
     4   18   43 1    
     5    5    6 2    
     6   15   14 ar   
     7   14   13 ar   
     8   18   19 1    
     9   17   18 1    
    10   16   15 ar   
    11   25   26 2    
    12   19   20 1    
    13   13   39 1    
    14   12   13 ar   
    15    1   30 1    
    16   17   25 ar   
    17    4   17 ar   
    18    4    5 1    
    19    5    7 1    
    20   27   25 ar   
    21   23   49 1    
    22   20   45 1    
    23   23   47 1    
    24    3    4 ar   
    25    7   16 ar   
    26   16   11 ar   
    27   20   21 1    
    28   20   44 1    
    29   24   51 1    
    30   22   23 1    
    31   23   48 1    
    32    1   32 1    
    33    7    8 ar   
    34   27   53 1    
    35   28   27 ar   
    36    1   31 1    
    37    2    1 1    
    38   21   22 2    
    39   21   46 1    
    40   22   24 1    
    41   11   12 ar   
    42   12   38 1    
    43    3   28 ar   
    44    3    2 1    
    45   11   10 ar   
    46   24   52 1    
    47   24   50 1    
    48   28   29 2    
    49    2   33 1    
    50    2   34 1    
    51    8   35 1    
    52    8    9 ar   
    53   10    9 ar   
    54   10   37 1    
    55    9   36 1    
@<TRIPOS>SUBSTRUCTURE
     1 ****       40 TEMP              0 ****  ****    0 ROOT 
