#	Name:			LJ-2006-CPB-1249-26
#	Creating user name:	Administrator
#	Creation time:		Sun Jul 05 16:45:56 2020

#	Modifying user name:	Administrator
#	Modification time:	Sun Jul 05 16:48:40 2020

@<TRIPOS>MOLECULE
LJ-2006-CPB-1249-26
   51    53     1     0     0
SMALL
MULLIKEN_CHARGES
INVALID_CHARGES
Gaussian 16 #p B3LYP/6-31G* opt
@<TRIPOS>ATOM
      1 C           5.162362    2.692995   -0.640625 C.3       1 <1>        -0.463100 
      2 C           3.904588    2.303818   -1.400935 C.3       1 <1>        -0.046500 
      3 O           2.823601    1.973229   -0.490319 O.3       1 <1>        -0.448000 
      4 C           2.775697    0.710365   -0.049069 C.2       1 <1>         0.660900 
      5 O           3.566281   -0.166383   -0.317901 O.2       1 <1>        -0.476700 
      6 C           1.608774    0.472769    0.909803 C.3       1 <1>        -0.283000 
      7 N           0.557047    1.487174    0.886005 N.ar      1 <1>        -0.527200 
      8 C          -0.441652    1.493525   -0.084273 C.ar      1 <1>         0.230200 
      9 C          -0.384729    0.332169   -1.082775 C.2       1 <1>         0.308800 
     10 O           0.398590    0.461724   -2.014883 O.2       1 <1>        -0.459900 
     11 C          -1.245691   -0.854439   -0.845789 C.ar      1 <1>         0.056900 
     12 C          -2.000998   -0.882867    0.323658 C.ar      1 <1>        -0.195400 
     13 C          -2.828844   -1.972505    0.651923 C.ar      1 <1>        -0.136500 
     14 C          -2.908129   -3.045331   -0.205322 C.ar      1 <1>        -0.171200 
     15 C          -2.166137   -3.075256   -1.415060 C.ar      1 <1>         0.133200 
     16 C          -2.265591   -4.191930   -2.286512 C.ar      1 <1>        -0.194900 
     17 C          -1.551824   -4.235710   -3.461174 C.ar      1 <1>        -0.125400 
     18 C          -0.708950   -3.155893   -3.804041 C.ar      1 <1>        -0.134200 
     19 C          -0.586796   -2.054522   -2.981620 C.ar      1 <1>        -0.186600 
     20 C          -1.309670   -1.973171   -1.760318 C.ar      1 <1>         0.071400 
     21 C          -1.354052    2.495324   -0.216713 C.ar      1 <1>         0.030700 
     22 C          -2.426608    2.498291   -1.297895 C.3       1 <1>        -0.148800 
     23 C          -2.206985    3.647918   -2.301985 C.3       1 <1>        -0.453800 
     24 C          -3.850307    2.526916   -0.708483 C.3       1 <1>        -0.455500 
     25 C          -1.270098    3.634062    0.703976 C.ar      1 <1>         0.605200 
     26 O          -2.000230    4.617059    0.712493 O.2       1 <1>        -0.509400 
     27 N          -0.242169    3.533112    1.654106 N.ar      1 <1>        -0.704100 
     28 C           0.707318    2.542356    1.794202 C.ar      1 <1>         0.794200 
     29 O           1.583814    2.573980    2.641838 O.2       1 <1>        -0.514000 
     30 H           5.550349    1.841688   -0.074444 H         1 <1>         0.177600 
     31 H           5.935200    3.017288   -1.347095 H         1 <1>         0.151400 
     32 H           4.959994    3.516360    0.051714 H         1 <1>         0.164700 
     33 H           3.511387    3.136772   -1.987788 H         1 <1>         0.159400 
     34 H           4.079040    1.447354   -2.056043 H         1 <1>         0.176100 
     35 H           2.016207    0.461038    1.922993 H         1 <1>         0.233600 
     36 H           1.194684   -0.514460    0.699221 H         1 <1>         0.197300 
     37 H          -1.956859   -0.040530    1.005194 H         1 <1>         0.160700 
     38 H          -3.399119   -1.956768    1.575580 H         1 <1>         0.147800 
     39 H          -3.545703   -3.893325    0.033116 H         1 <1>         0.147100 
     40 H          -2.919689   -5.013248   -2.004369 H         1 <1>         0.138300 
     41 H          -1.633289   -5.093855   -4.122406 H         1 <1>         0.140000 
     42 H          -0.143706   -3.191240   -4.731523 H         1 <1>         0.142500 
     43 H           0.067442   -1.240435   -3.256947 H         1 <1>         0.188600 
     44 H          -2.328440    1.561298   -1.859045 H         1 <1>         0.135700 
     45 H          -2.295860    4.618124   -1.806334 H         1 <1>         0.180100 
     46 H          -1.215280    3.579473   -2.762758 H         1 <1>         0.148300 
     47 H          -2.956882    3.596825   -3.100089 H         1 <1>         0.140200 
     48 H          -4.016351    3.443508   -0.137540 H         1 <1>         0.184400 
     49 H          -4.022988    1.668997   -0.048008 H         1 <1>         0.132900 
     50 H          -4.590158    2.481837   -1.516172 H         1 <1>         0.141400 
     51 H          -0.156450    4.311201    2.298727 H         1 <1>         0.354900 
@<TRIPOS>BOND
     1   23   47 1    
     2   23   46 1    
     3   23   45 1    
     4   22   23 1    
     5   18   42 1    
     6    2   33 1    
     7   19   43 1    
     8    2   34 1    
     9   24   50 1    
    10    1   31 1    
    11   22   44 1    
    12   19   18 ar   
    13   18   17 ar   
    14   22   24 1    
    15   21   22 1    
    16    2    1 1    
    17    3    2 1    
    18    9   10 2    
    19   20   19 ar   
    20   17   41 1    
    21   24   48 1    
    22   24   49 1    
    23    1   32 1    
    24    1   30 1    
    25   16   17 ar   
    26    4    3 1    
    27   21   25 ar   
    28    8   21 ar   
    29   25   26 2    
    30    8    9 1    
    31    9   11 1    
    32   11   20 ar   
    33   20   15 ar   
    34   27   25 ar   
    35    7    8 ar   
    36   15   16 ar   
    37   16   40 1    
    38   11   12 ar   
    39    4    5 2    
    40    6    4 1    
    41   15   14 ar   
    42   27   51 1    
    43   28   27 ar   
    44    7   28 ar   
    45    7    6 1    
    46   12   37 1    
    47   12   13 ar   
    48   28   29 2    
    49    6   36 1    
    50    6   35 1    
    51   14   13 ar   
    52   14   39 1    
    53   13   38 1    
@<TRIPOS>SUBSTRUCTURE
     1 ****       42 TEMP              0 ****  ****    0 ROOT 
