#	Name:			LJ-2007-EJMC-198-23
#	Creating user name:	Administrator
#	Creation time:		Sun Jul 05 16:45:57 2020

#	Modifying user name:	Administrator
#	Modification time:	Sun Jul 05 16:48:40 2020

@<TRIPOS>MOLECULE
LJ-2007-EJMC-198-23
   47    49     1     0     0
SMALL
MULLIKEN_CHARGES
INVALID_CHARGES
Gaussian 16 #p B3LYP/6-31G* opt
@<TRIPOS>ATOM
      1 C           2.928894   -3.070699    0.451584 C.2       1 <1>        -0.331200 
      2 C           2.594139   -2.057362   -0.347351 C.2       1 <1>        -0.080300 
      3 C           3.210830   -0.685874   -0.272397 C.3       1 <1>        -0.070600 
      4 O           2.247179    0.370403   -0.212360 O.3       1 <1>        -0.484800 
      5 C           1.496109    0.379869    0.988000 C.3       1 <1>         0.073900 
      6 N           0.543281    1.477229    0.894099 N.ar      1 <1>        -0.565200 
      7 C          -0.441788    1.493212   -0.097580 C.ar      1 <1>         0.245200 
      8 C          -0.549271    0.229964   -0.954817 C.2       1 <1>         0.340200 
      9 O          -0.916748   -0.787414   -0.379752 O.2       1 <1>        -0.468700 
     10 C          -0.228787    0.310850   -2.403830 C.ar      1 <1>         0.043800 
     11 C           0.540860    1.383061   -2.838998 C.ar      1 <1>        -0.173200 
     12 C           0.936154    1.516135   -4.183497 C.ar      1 <1>        -0.139000 
     13 C           0.544871    0.572383   -5.104607 C.ar      1 <1>        -0.174600 
     14 C          -0.248762   -0.540569   -4.721399 C.ar      1 <1>         0.131700 
     15 C          -0.653077   -1.500873   -5.686810 C.ar      1 <1>        -0.195600 
     16 C          -1.424862   -2.581177   -5.328551 C.ar      1 <1>        -0.127300 
     17 C          -1.822536   -2.737536   -3.981978 C.ar      1 <1>        -0.136500 
     18 C          -1.445906   -1.827056   -3.016499 C.ar      1 <1>        -0.189000 
     19 C          -0.646501   -0.698180   -3.348898 C.ar      1 <1>         0.070700 
     20 C          -1.346868    2.502779   -0.216165 C.ar      1 <1>         0.020800 
     21 C          -2.500359    2.529781   -1.191958 C.3       1 <1>        -0.332500 
     22 C          -3.828804    2.099431   -0.542192 C.3       1 <1>        -0.447300 
     23 C          -1.266599    3.635004    0.714066 C.ar      1 <1>         0.610800 
     24 O          -2.015196    4.602418    0.716001 O.2       1 <1>        -0.507400 
     25 N          -0.219714    3.550851    1.638734 N.ar      1 <1>        -0.700500 
     26 C           0.708141    2.539111    1.794567 C.ar      1 <1>         0.784100 
     27 O           1.578720    2.575988    2.647912 O.2       1 <1>        -0.511100 
     28 H           2.482699   -4.055684    0.345468 H         1 <1>         0.152600 
     29 H           3.671223   -2.956641    1.239658 H         1 <1>         0.143900 
     30 H           1.841828   -2.193805   -1.123584 H         1 <1>         0.154800 
     31 H           3.901039   -0.620434    0.583214 H         1 <1>         0.138900 
     32 H           3.781985   -0.472248   -1.182970 H         1 <1>         0.163500 
     33 H           2.126028    0.583983    1.857016 H         1 <1>         0.191300 
     34 H           0.956849   -0.562163    1.121676 H         1 <1>         0.185100 
     35 H           0.866848    2.126801   -2.121270 H         1 <1>         0.162200 
     36 H           1.547205    2.362299   -4.482970 H         1 <1>         0.144700 
     37 H           0.839593    0.665211   -6.147328 H         1 <1>         0.143000 
     38 H          -0.340755   -1.361129   -6.718936 H         1 <1>         0.136100 
     39 H          -1.730157   -3.310003   -6.074100 H         1 <1>         0.137200 
     40 H          -2.435170   -3.589650   -3.699806 H         1 <1>         0.138800 
     41 H          -1.749450   -1.970296   -1.989433 H         1 <1>         0.180700 
     42 H          -2.289963    1.891526   -2.054071 H         1 <1>         0.148100 
     43 H          -2.603342    3.554730   -1.564093 H         1 <1>         0.169100 
     44 H          -4.077650    2.756553    0.296361 H         1 <1>         0.171300 
     45 H          -3.769838    1.069890   -0.171584 H         1 <1>         0.150200 
     46 H          -4.644991    2.154385   -1.271366 H         1 <1>         0.146500 
     47 H          -0.129908    4.322853    2.289931 H         1 <1>         0.355100 
@<TRIPOS>BOND
     1   17   40 1    
     2   22   45 1    
     3   18   41 1    
     4    1   28 1    
     5   22   44 1    
     6   22   46 1    
     7    8    9 2    
     8   18   17 ar   
     9   17   16 ar   
    10   21   22 1    
    11   19   18 ar   
    12    5   34 1    
    13    1   29 1    
    14    2    1 2    
    15   16   39 1    
    16   15   16 ar   
    17    7    8 1    
    18    8   10 1    
    19    2   30 1    
    20    3    2 1    
    21   21   42 1    
    22   20   21 1    
    23   21   43 1    
    24    5   33 1    
    25    5    6 1    
    26    4    5 1    
    27    6    7 ar   
    28    7   20 ar   
    29    6   26 ar   
    30   20   23 ar   
    31   10   19 ar   
    32   19   14 ar   
    33   23   24 2    
    34   25   23 ar   
    35   26   25 ar   
    36   26   27 2    
    37   25   47 1    
    38   10   11 ar   
    39   14   15 ar   
    40   15   38 1    
    41    3    4 1    
    42    3   31 1    
    43    3   32 1    
    44   14   13 ar   
    45   11   35 1    
    46   11   12 ar   
    47   13   12 ar   
    48   13   37 1    
    49   12   36 1    
@<TRIPOS>SUBSTRUCTURE
     1 ****       28 TEMP              0 ****  ****    0 ROOT 
