#	Name:			LJ-2007-EJMC-198-22
#	Creating user name:	Administrator
#	Creation time:		Sun Jul 05 16:45:57 2020

#	Modifying user name:	Administrator
#	Modification time:	Sun Jul 05 16:48:40 2020

@<TRIPOS>MOLECULE
LJ-2007-EJMC-198-22
   55    58     1     0     0
SMALL
MULLIKEN_CHARGES
INVALID_CHARGES
Gaussian 16 #p B3LYP/6-31G* opt
@<TRIPOS>ATOM
      1 C          -3.839748    2.295908   -0.713262 C.3       1 <1>        -0.451900 
      2 C          -2.428801    2.558069   -1.269096 C.3       1 <1>        -0.331800 
      3 C          -1.343272    2.503099   -0.218558 C.ar      1 <1>         0.026200 
      4 C          -0.442267    1.494628   -0.093866 C.ar      1 <1>         0.241200 
      5 C          -0.395202    0.349059   -1.111811 C.2       1 <1>         0.307300 
      6 O           0.321638    0.523621   -2.086315 O.2       1 <1>        -0.449200 
      7 C          -1.211754   -0.866066   -0.852690 C.ar      1 <1>         0.056400 
      8 C          -1.920125   -0.929010    0.344083 C.ar      1 <1>        -0.198900 
      9 C          -2.703113   -2.045751    0.691834 C.ar      1 <1>        -0.137300 
     10 C          -2.782548   -3.112848   -0.172598 C.ar      1 <1>        -0.172100 
     11 C          -2.087294   -3.108206   -1.410146 C.ar      1 <1>         0.133100 
     12 C          -2.186494   -4.218966   -2.289360 C.ar      1 <1>        -0.195200 
     13 C          -1.519726   -4.228529   -3.492095 C.ar      1 <1>        -0.125800 
     14 C          -0.726359   -3.118599   -3.857000 C.ar      1 <1>        -0.134800 
     15 C          -0.605441   -2.022187   -3.027721 C.ar      1 <1>        -0.191100 
     16 C          -1.279583   -1.976490   -1.776668 C.ar      1 <1>         0.069300 
     17 N           0.543433    1.478790    0.896208 N.ar      1 <1>        -0.557300 
     18 C           1.600289    0.482080    0.929313 C.3       1 <1>         0.102000 
     19 O           2.709180    0.992224    0.228937 O.3       1 <1>        -0.458800 
     20 C           3.939452    0.337845    0.514806 C.3       1 <1>        -0.098700 
     21 C           5.076038    1.305917    0.283965 C.ar      1 <1>         0.160500 
     22 C           6.208543    0.923492   -0.442682 C.ar      1 <1>        -0.195200 
     23 C           7.273395    1.804593   -0.617674 C.ar      1 <1>        -0.148300 
     24 C           7.181396    3.076798   -0.059786 C.ar      1 <1>         0.276200 
     25 N           8.299371    4.015605   -0.241109 N.pl3     1 <1>         0.379000 
     26 O           8.193682    5.135349    0.258996 O.2       1 <1>        -0.394700 
     27 O           9.276364    3.626193   -0.881559 O.2       1 <1>        -0.397300 
     28 C           6.061716    3.487897    0.664249 C.ar      1 <1>        -0.153900 
     29 C           5.009958    2.594665    0.834423 C.ar      1 <1>        -0.179300 
     30 C           0.705542    2.544034    1.796153 C.ar      1 <1>         0.807800 
     31 O           1.592422    2.575080    2.634171 O.2       1 <1>        -0.518800 
     32 N          -0.239480    3.538137    1.661459 N.ar      1 <1>        -0.705800 
     33 C          -1.268321    3.635042    0.710458 C.ar      1 <1>         0.606800 
     34 O          -2.008079    4.607781    0.705609 O.2       1 <1>        -0.501900 
     35 H          -3.921541    1.287450   -0.292519 H         1 <1>         0.138900 
     36 H          -4.084925    3.021648    0.067150 H         1 <1>         0.176100 
     37 H          -4.584749    2.389246   -1.511096 H         1 <1>         0.149500 
     38 H          -2.206290    1.852494   -2.075762 H         1 <1>         0.153400 
     39 H          -2.408625    3.559933   -1.713164 H         1 <1>         0.174600 
     40 H          -1.875185   -0.092746    1.033239 H         1 <1>         0.159600 
     41 H          -3.239186   -2.055108    1.635725 H         1 <1>         0.148300 
     42 H          -3.385324   -3.981670    0.080753 H         1 <1>         0.147800 
     43 H          -2.803368   -5.063089   -1.990963 H         1 <1>         0.139200 
     44 H          -1.601769   -5.081719   -4.159412 H         1 <1>         0.141100 
     45 H          -0.201001   -3.125432   -4.808175 H         1 <1>         0.143300 
     46 H           0.007261   -1.182679   -3.322065 H         1 <1>         0.189700 
     47 H           1.223501   -0.444560    0.482098 H         1 <1>         0.153200 
     48 H           1.853752    0.302232    1.979139 H         1 <1>         0.172800 
     49 H           4.058029   -0.558225   -0.112213 H         1 <1>         0.145700 
     50 H           3.949021    0.007321    1.566725 H         1 <1>         0.152400 
     51 H           6.259507   -0.069515   -0.881418 H         1 <1>         0.142400 
     52 H           8.157491    1.528222   -1.178580 H         1 <1>         0.182100 
     53 H           6.032710    4.487236    1.080600 H         1 <1>         0.184600 
     54 H           4.126035    2.889369    1.392048 H         1 <1>         0.180900 
     55 H          -0.146288    4.318356    2.302700 H         1 <1>         0.356900 
@<TRIPOS>BOND
     1    2   39 1    
     2   14   45 1    
     3    2   38 1    
     4    1   37 1    
     5    2    1 1    
     6    3    2 1    
     7   15   46 1    
     8   15   14 ar   
     9   14   13 ar   
    10    5    6 2    
    11    1   36 1    
    12    1   35 1    
    13   16   15 ar   
    14   33   34 2    
    15   25   27 2    
    16   13   44 1    
    17    3   33 ar   
    18    4    3 ar   
    19   12   13 ar   
    20   25   26 2    
    21   24   25 1    
    22    4    5 1    
    23    5    7 1    
    24   32   33 ar   
    25   23   52 1    
    26    7   16 ar   
    27   16   11 ar   
    28   17    4 ar   
    29   23   24 ar   
    30   28   24 ar   
    31   22   23 ar   
    32   28   53 1    
    33    7    8 ar   
    34   29   28 ar   
    35   11   12 ar   
    36   12   43 1    
    37   22   51 1    
    38   21   22 ar   
    39   32   55 1    
    40   30   32 ar   
    41   11   10 ar   
    42   19   20 1    
    43   18   19 1    
    44   21   29 ar   
    45   29   54 1    
    46   20   21 1    
    47   17   30 ar   
    48   17   18 1    
    49   20   49 1    
    50   30   31 2    
    51    8   40 1    
    52    8    9 ar   
    53   20   50 1    
    54   18   47 1    
    55   18   48 1    
    56   10    9 ar   
    57   10   42 1    
    58    9   41 1    
@<TRIPOS>SUBSTRUCTURE
     1 ****       45 TEMP              0 ****  ****    0 ROOT 
