#	Name:			LJ-2006-CPB-1249-25
#	Creating user name:	Administrator
#	Creation time:		Sun Jul 05 16:45:55 2020

#	Modifying user name:	Administrator
#	Modification time:	Sun Jul 05 16:48:40 2020

@<TRIPOS>MOLECULE
LJ-2006-CPB-1249-25
   52    55     1     0     0
SMALL
MULLIKEN_CHARGES
INVALID_CHARGES
Gaussian 16 #p B3LYP/6-31G* opt
@<TRIPOS>ATOM
      1 C          -3.891639    2.492741   -0.567595 C.3       1 <1>        -0.458100 
      2 C          -2.496579    2.451212   -1.222048 C.3       1 <1>        -0.149500 
      3 C          -2.325404    3.573544   -2.265850 C.3       1 <1>        -0.453500 
      4 C          -1.375856    2.478674   -0.190599 C.ar      1 <1>         0.048900 
      5 C          -0.449520    1.485654   -0.070957 C.ar      1 <1>         0.211100 
      6 C          -0.464686    0.309014   -1.039632 C.2       1 <1>         0.293400 
      7 O           0.271258    0.404113   -2.015126 O.2       1 <1>        -0.447300 
      8 C          -1.370361   -0.873163   -0.874439 C.ar      1 <1>         0.010100 
      9 C          -1.501746   -1.641500   -2.027697 C.ar      1 <1>        -0.158100 
     10 C          -2.338477   -2.768079   -2.084716 C.ar      1 <1>        -0.134200 
     11 C          -3.051853   -3.139612   -0.968100 C.ar      1 <1>        -0.174200 
     12 C          -2.943850   -2.411772    0.244284 C.ar      1 <1>         0.129800 
     13 C          -3.671636   -2.831766    1.390303 C.ar      1 <1>        -0.191400 
     14 C          -3.566750   -2.159374    2.583949 C.ar      1 <1>        -0.128900 
     15 C          -2.714662   -1.036673    2.672808 C.ar      1 <1>        -0.139700 
     16 C          -1.997929   -0.599936    1.578946 C.ar      1 <1>        -0.191300 
     17 C          -2.088576   -1.254859    0.318890 C.ar      1 <1>         0.091700 
     18 N           0.595847    1.513424    0.849573 N.ar      1 <1>        -0.521800 
     19 C           1.647810    0.469916    0.936257 C.3       1 <1>        -0.255700 
     20 C           3.015253    0.928560    0.461020 C.ar      1 <1>         0.160200 
     21 C           3.242759    1.259569   -0.881895 C.ar      1 <1>        -0.192700 
     22 C           4.514974    1.646187   -1.303728 C.ar      1 <1>        -0.133300 
     23 C           5.572632    1.702972   -0.393453 C.ar      1 <1>        -0.125700 
     24 C           5.350757    1.377326    0.945185 C.ar      1 <1>        -0.131700 
     25 C           4.077083    0.997159    1.369381 C.ar      1 <1>        -0.159800 
     26 C           0.709561    2.543812    1.788333 C.ar      1 <1>         0.787700 
     27 O           1.556264    2.551273    2.666276 O.2       1 <1>        -0.511100 
     28 N          -0.231305    3.544224    1.641088 N.ar      1 <1>        -0.702800 
     29 C          -1.269259    3.636733    0.703012 C.ar      1 <1>         0.600700 
     30 O          -1.995754    4.622797    0.704909 O.2       1 <1>        -0.510500 
     31 H          -4.022781    1.661754    0.134744 H         1 <1>         0.141400 
     32 H          -4.667467    2.409501   -1.337808 H         1 <1>         0.138600 
     33 H          -4.039802    3.430867   -0.027774 H         1 <1>         0.183100 
     34 H          -2.424528    1.500109   -1.762025 H         1 <1>         0.133400 
     35 H          -2.390129    4.556437   -1.792230 H         1 <1>         0.181100 
     36 H          -1.357274    3.492221   -2.772481 H         1 <1>         0.147300 
     37 H          -3.113299    3.502345   -3.024918 H         1 <1>         0.138900 
     38 H          -0.940580   -1.336039   -2.903766 H         1 <1>         0.175400 
     39 H          -2.421745   -3.332533   -3.008636 H         1 <1>         0.147000 
     40 H          -3.709690   -4.004896   -0.995968 H         1 <1>         0.145900 
     41 H          -4.312600   -3.705402    1.302098 H         1 <1>         0.139800 
     42 H          -4.126172   -2.488877    3.454611 H         1 <1>         0.142000 
     43 H          -2.617652   -0.508226    3.617010 H         1 <1>         0.144900 
     44 H          -1.352326    0.256805    1.701785 H         1 <1>         0.157600 
     45 H           1.303736   -0.386952    0.354428 H         1 <1>         0.180700 
     46 H           1.705283    0.161241    1.981960 H         1 <1>         0.184900 
     47 H           2.424089    1.215414   -1.594045 H         1 <1>         0.172000 
     48 H           4.680477    1.900378   -2.347431 H         1 <1>         0.131300 
     49 H           6.563081    2.003047   -0.725374 H         1 <1>         0.129200 
     50 H           6.165734    1.427500    1.662424 H         1 <1>         0.130300 
     51 H           3.899002    0.767725    2.416105 H         1 <1>         0.139300 
     52 H          -0.150201    4.316296    2.293397 H         1 <1>         0.353600 
@<TRIPOS>BOND
     1    3   37 1    
     2    3   36 1    
     3   10   39 1    
     4    9   38 1    
     5   22   48 1    
     6    3   35 1    
     7    2    3 1    
     8    6    7 2    
     9    9   10 ar   
    10    8    9 ar   
    11   10   11 ar   
    12    2   34 1    
    13   21   47 1    
    14   21   22 ar   
    15   22   23 ar   
    16    1   32 1    
    17    2    1 1    
    18    4    2 1    
    19    6    8 1    
    20    5    6 1    
    21   20   21 ar   
    22   23   49 1    
    23    8   17 ar   
    24   11   40 1    
    25   12   11 ar   
    26   24   23 ar   
    27    1   33 1    
    28    1   31 1    
    29    5    4 ar   
    30    4   29 ar   
    31   18    5 ar   
    32   19   45 1    
    33   19   20 1    
    34   20   25 ar   
    35   17   12 ar   
    36   12   13 ar   
    37   17   16 ar   
    38   29   30 2    
    39   29   28 ar   
    40   25   24 ar   
    41   24   50 1    
    42   18   19 1    
    43   18   26 ar   
    44   19   46 1    
    45   25   51 1    
    46   28   26 ar   
    47   28   52 1    
    48   13   41 1    
    49   13   14 ar   
    50   16   44 1    
    51   16   15 ar   
    52   26   27 2    
    53   14   15 ar   
    54   14   42 1    
    55   15   43 1    
@<TRIPOS>SUBSTRUCTURE
     1 ****       37 TEMP              0 ****  ****    0 ROOT 
