#	Name:			LJ-2006-CPB-1249-19
#	Creating user name:	Administrator
#	Creation time:		Sun Jul 05 16:45:55 2020

#	Modifying user name:	Administrator
#	Modification time:	Sun Jul 05 16:48:40 2020

@<TRIPOS>MOLECULE
LJ-2006-CPB-1249-19
   43    45     1     0     0
SMALL
MULLIKEN_CHARGES
INVALID_CHARGES
Gaussian 16 #p B3LYP/6-31G* opt
@<TRIPOS>ATOM
      1 C           0.802827   -1.867233    1.994934 C.2       1 <1>        -0.323800 
      2 C           1.069984   -0.574928    2.175170 C.2       1 <1>        -0.042200 
      3 C           1.498471    0.354584    1.070426 C.3       1 <1>        -0.216100 
      4 N           0.565226    1.492944    0.877258 N.ar      1 <1>        -0.531700 
      5 C          -0.445395    1.489946   -0.079404 C.ar      1 <1>         0.234200 
      6 C          -0.557402    0.232201   -0.947132 C.2       1 <1>         0.313500 
      7 O          -1.260110   -0.668807   -0.511152 O.2       1 <1>        -0.454200 
      8 C           0.174951    0.195480   -2.241255 C.ar      1 <1>         0.054000 
      9 C           0.973730    1.288396   -2.565456 C.ar      1 <1>        -0.196400 
     10 C           1.724291    1.339974   -3.755175 C.ar      1 <1>        -0.136900 
     11 C           1.671991    0.284508   -4.635346 C.ar      1 <1>        -0.172400 
     12 C           0.873348   -0.857490   -4.364856 C.ar      1 <1>         0.133600 
     13 C           0.831294   -1.934791   -5.289092 C.ar      1 <1>        -0.195200 
     14 C           0.061316   -3.047190   -5.042173 C.ar      1 <1>        -0.126000 
     15 C          -0.698109   -3.117771   -3.853628 C.ar      1 <1>        -0.134800 
     16 C          -0.681285   -2.090674   -2.932014 C.ar      1 <1>        -0.192200 
     17 C           0.103750   -0.925626   -3.152096 C.ar      1 <1>         0.069500 
     18 C          -1.351857    2.497567   -0.205916 C.ar      1 <1>         0.024200 
     19 C          -2.462278    2.529760   -1.231287 C.3       1 <1>        -0.331400 
     20 C          -2.218722    3.531133   -2.374274 C.3       1 <1>        -0.450800 
     21 C          -1.267694    3.638117    0.708166 C.ar      1 <1>         0.603100 
     22 O          -2.020033    4.603224    0.714385 O.2       1 <1>        -0.510600 
     23 N          -0.212678    3.560083    1.628947 N.ar      1 <1>        -0.703100 
     24 C           0.704594    2.540182    1.791888 C.ar      1 <1>         0.784400 
     25 O           1.567815    2.554528    2.656310 O.2       1 <1>        -0.521500 
     26 H           0.848973   -2.333018    1.013116 H         1 <1>         0.146900 
     27 H           0.520394   -2.510295    2.823825 H         1 <1>         0.149900 
     28 H           1.010783   -0.125707    3.164293 H         1 <1>         0.161100 
     29 H           2.468214    0.799583    1.307897 H         1 <1>         0.197500 
     30 H           1.590805   -0.176982    0.122261 H         1 <1>         0.165900 
     31 H           1.020991    2.131979   -1.885548 H         1 <1>         0.162200 
     32 H           2.335734    2.211184   -3.968952 H         1 <1>         0.147800 
     33 H           2.244916    0.309884   -5.559227 H         1 <1>         0.146600 
     34 H           1.421692   -1.860345   -6.199059 H         1 <1>         0.138100 
     35 H           0.034388   -3.866510   -5.754983 H         1 <1>         0.139700 
     36 H          -1.308502   -3.995595   -3.659510 H         1 <1>         0.141600 
     37 H          -1.268554   -2.161107   -2.028224 H         1 <1>         0.188600 
     38 H          -2.627764    1.527698   -1.639269 H         1 <1>         0.151400 
     39 H          -3.384350    2.813194   -0.710416 H         1 <1>         0.171900 
     40 H          -3.073131    3.540430   -3.060354 H         1 <1>         0.146500 
     41 H          -2.091354    4.541591   -1.976011 H         1 <1>         0.175500 
     42 H          -1.325813    3.267060   -2.952025 H         1 <1>         0.137800 
     43 H          -0.132017    4.326472    2.288006 H         1 <1>         0.353700 
@<TRIPOS>BOND
     1   15   36 1    
     2   19   39 1    
     3   16   37 1    
     4   19   38 1    
     5    6    7 2    
     6   16   15 ar   
     7   15   14 ar   
     8   18   19 1    
     9   19   20 1    
    10    1   27 1    
    11   20   40 1    
    12   17   16 ar   
    13    1   26 1    
    14    2    1 2    
    15   14   35 1    
    16   18   21 ar   
    17    5   18 ar   
    18   21   22 2    
    19   20   41 1    
    20   20   42 1    
    21    5    6 1    
    22    6    8 1    
    23   14   13 ar   
    24   23   21 ar   
    25    4    5 ar   
    26    2   28 1    
    27    8   17 ar   
    28   17   12 ar   
    29    3    2 1    
    30    8    9 ar   
    31   23   43 1    
    32   24   23 ar   
    33    4   24 ar   
    34    4    3 1    
    35   13   12 ar   
    36   13   34 1    
    37   24   25 2    
    38    3   30 1    
    39    3   29 1    
    40   12   11 ar   
    41    9   31 1    
    42    9   10 ar   
    43   11   10 ar   
    44   11   33 1    
    45   10   32 1    
@<TRIPOS>SUBSTRUCTURE
     1 ****       36 TEMP              0 ****  ****    0 ROOT 
