#	Name:			LJ-2006-CPB-1249-24
#	Creating user name:	Administrator
#	Creation time:		Sun Jul 05 16:45:55 2020

#	Modifying user name:	Administrator
#	Modification time:	Sun Jul 05 16:48:40 2020

@<TRIPOS>MOLECULE
LJ-2006-CPB-1249-24
  156   158     1     0     0
SMALL
MULLIKEN_CHARGES
INVALID_CHARGES
Gaussian public/home/users/ssctmf048t/g16/g16 #p B3LYP/6-31G* opt
@<TRIPOS>ATOM
      1 C         -12.832370    4.176573   23.389168 C.3       1 <1>        -0.486100 
      2 C         -12.493966    5.111870   22.261997 C.2       1 <1>        -0.159700 
      3 C         -13.314143    5.675532   21.360400 C.2       1 <1>         0.199900 
      4 C         -14.811758    5.486996   21.328884 C.3       1 <1>        -0.524200 
      5 C         -12.735813    6.579203   20.284591 C.3       1 <1>        -0.334600 
      6 C         -12.472779    5.896002   18.913518 C.3       1 <1>        -0.292400 
      7 C         -13.706902    5.541593   18.128002 C.2       1 <1>        -0.157100 
      8 C         -14.075280    4.355771   17.614844 C.2       1 <1>         0.178700 
      9 C         -13.309146    3.065775   17.787278 C.3       1 <1>        -0.522500 
     10 C         -15.352967    4.253320   16.794201 C.3       1 <1>        -0.325100 
     11 C         -15.192669    4.607866   15.288346 C.3       1 <1>        -0.297500 
     12 C         -14.189773    3.771235   14.538298 C.2       1 <1>        -0.171300 
     13 C         -14.415500    2.803376   13.633728 C.2       1 <1>         0.188900 
     14 C         -15.787444    2.342122   13.200309 C.3       1 <1>        -0.521100 
     15 C         -13.249428    2.093874   12.971685 C.3       1 <1>        -0.324800 
     16 C         -13.055960    2.458886   11.476747 C.3       1 <1>        -0.301700 
     17 C         -11.927706    1.688585   10.844962 C.2       1 <1>        -0.169200 
     18 C         -10.781651    2.148943   10.317292 C.2       1 <1>         0.191900 
     19 C         -10.392476    3.607558   10.256006 C.3       1 <1>        -0.522100 
     20 C          -9.775693    1.179955    9.725510 C.3       1 <1>        -0.325500 
     21 C          -9.653217    1.260532    8.181442 C.3       1 <1>        -0.304200 
     22 C          -8.607932    0.317589    7.645830 C.2       1 <1>        -0.163300 
     23 C          -8.768885   -0.736815    6.831013 C.2       1 <1>         0.169000 
     24 C         -10.097100   -1.179017    6.260429 C.3       1 <1>        -0.515800 
     25 C          -7.610711   -1.609607    6.377470 C.3       1 <1>        -0.313600 
     26 C          -6.205052   -1.257947    6.897577 C.3       1 <1>        -0.313800 
     27 C          -5.170577   -2.248325    6.427860 C.2       1 <1>        -0.167000 
     28 C          -4.116772   -2.040185    5.623299 C.2       1 <1>         0.169500 
     29 C          -3.754549   -0.702427    5.019482 C.3       1 <1>        -0.520600 
     30 C          -3.155349   -3.147739    5.225790 C.3       1 <1>        -0.316100 
     31 C          -3.423593   -4.559186    5.780468 C.3       1 <1>        -0.311500 
     32 C          -2.361194   -5.538483    5.355991 C.2       1 <1>        -0.175800 
     33 C          -2.470599   -6.599723    4.540712 C.2       1 <1>         0.214900 
     34 C          -3.754696   -7.042721    3.880500 C.3       1 <1>        -0.526900 
     35 C          -1.256803   -7.456081    4.236199 C.3       1 <1>        -0.335100 
     36 C          -0.826771   -7.476941    2.746358 C.3       1 <1>        -0.309200 
     37 C          -0.409089   -6.121438    2.239466 C.2       1 <1>        -0.143700 
     38 C          -0.796072   -5.484006    1.124045 C.2       1 <1>         0.163600 
     39 C          -1.771113   -6.043966    0.113581 C.3       1 <1>        -0.516700 
     40 C          -0.282110   -4.105487    0.745395 C.3       1 <1>        -0.322600 
     41 C           0.710009   -3.429693    1.710299 C.3       1 <1>        -0.317700 
     42 C           1.144475   -2.084596    1.195931 C.2       1 <1>        -0.170900 
     43 C           0.917569   -0.875271    1.730151 C.2       1 <1>         0.206800 
     44 C           0.166868   -0.602542    3.009350 C.3       1 <1>        -0.540000 
     45 C           1.506638    0.345534    1.047133 C.3       1 <1>        -0.264200 
     46 N           0.560708    1.479855    0.884949 N.ar      1 <1>        -0.529300 
     47 C          -0.445224    1.490135   -0.077468 C.ar      1 <1>         0.215200 
     48 C          -0.580023    0.231431   -0.928589 C.2       1 <1>         0.338300 
     49 O          -1.477215   -0.529741   -0.592132 O.2       1 <1>        -0.453800 
     50 C           0.305557   -0.084930   -2.097737 C.ar      1 <1>        -0.000800 
     51 C           0.134939   -1.374277   -2.592567 C.ar      1 <1>        -0.161600 
     52 C           0.893012   -1.872436   -3.665320 C.ar      1 <1>        -0.136700 
     53 C           1.841161   -1.069131   -4.256222 C.ar      1 <1>        -0.175200 
     54 C           2.054238    0.259340   -3.808384 C.ar      1 <1>         0.130600 
     55 C           3.029901    1.073346   -4.444712 C.ar      1 <1>        -0.191900 
     56 C           3.246456    2.369252   -4.042394 C.ar      1 <1>        -0.128900 
     57 C           2.478609    2.901678   -2.983812 C.ar      1 <1>        -0.138400 
     58 C           1.525501    2.138905   -2.342778 C.ar      1 <1>        -0.190700 
     59 C           1.277670    0.787735   -2.715252 C.ar      1 <1>         0.079100 
     60 C          -1.350195    2.501912   -0.221772 C.ar      1 <1>         0.033800 
     61 C          -2.441005    2.498239   -1.285688 C.3       1 <1>        -0.143800 
     62 C          -3.839050    2.361692   -0.651213 C.3       1 <1>        -0.453900 
     63 C          -2.354462    3.726172   -2.214408 C.3       1 <1>        -0.460200 
     64 C          -1.269798    3.636018    0.702235 C.ar      1 <1>         0.600700 
     65 O          -2.017638    4.605173    0.735970 O.2       1 <1>        -0.510600 
     66 N          -0.209113    3.555247    1.617072 N.ar      1 <1>        -0.703100 
     67 C           0.706704    2.537633    1.790638 C.ar      1 <1>         0.794100 
     68 O           1.564534    2.570617    2.660010 O.2       1 <1>        -0.521100 
     69 H         -13.899990    3.951767   23.457795 H         1 <1>         0.151200 
     70 H         -12.299108    3.222069   23.278345 H         1 <1>         0.151300 
     71 H         -12.517697    4.596923   24.354553 H         1 <1>         0.151100 
     72 H         -11.431078    5.349881   22.182410 H         1 <1>         0.109100 
     73 H         -15.178051    4.824118   22.116552 H         1 <1>         0.146700 
     74 H         -15.132330    5.078170   20.363341 H         1 <1>         0.167100 
     75 H         -15.321126    6.454459   21.443273 H         1 <1>         0.146300 
     76 H         -11.779829    6.986772   20.635627 H         1 <1>         0.136700 
     77 H         -13.400948    7.440878   20.124814 H         1 <1>         0.129600 
     78 H         -11.877588    6.603512   18.314518 H         1 <1>         0.138700 
     79 H         -11.836292    5.020596   19.077503 H         1 <1>         0.142300 
     80 H         -14.372754    6.389304   17.942420 H         1 <1>         0.106900 
     81 H         -13.100256    2.602403   16.815071 H         1 <1>         0.161100 
     82 H         -13.911452    2.339802   18.351534 H         1 <1>         0.152200 
     83 H         -12.361401    3.192565   18.315621 H         1 <1>         0.152700 
     84 H         -16.110754    4.929863   17.209978 H         1 <1>         0.138100 
     85 H         -15.760420    3.236621   16.871195 H         1 <1>         0.135300 
     86 H         -16.182106    4.549500   14.820864 H         1 <1>         0.134700 
     87 H         -14.883273    5.660763   15.226855 H         1 <1>         0.140900 
     88 H         -13.148348    3.996700   14.772780 H         1 <1>         0.120000 
     89 H         -16.597368    2.860134   13.718964 H         1 <1>         0.154000 
     90 H         -15.905986    1.265768   13.388041 H         1 <1>         0.151500 
     91 H         -15.938624    2.486434   12.122367 H         1 <1>         0.156200 
     92 H         -13.389055    1.004299   13.047338 H         1 <1>         0.131000 
     93 H         -12.321033    2.326744   13.506305 H         1 <1>         0.142500 
     94 H         -12.905672    3.540327   11.395633 H         1 <1>         0.142100 
     95 H         -13.984473    2.236004   10.930952 H         1 <1>         0.139800 
     96 H         -12.077043    0.606255   10.838675 H         1 <1>         0.109500 
     97 H         -10.306134    3.957268    9.218603 H         1 <1>         0.157300 
     98 H          -9.407343    3.761250   10.717798 H         1 <1>         0.150200 
     99 H         -11.104352    4.262247   10.763869 H         1 <1>         0.155200 
    100 H          -8.782588    1.368702   10.162242 H         1 <1>         0.131100 
    101 H         -10.045159    0.152504    9.997394 H         1 <1>         0.141300 
    102 H          -9.379975    2.287265    7.897931 H         1 <1>         0.139800 
    103 H         -10.637868    1.072665    7.741851 H         1 <1>         0.140900 
    104 H          -7.600861    0.539652    7.997923 H         1 <1>         0.118300 
    105 H         -10.076122   -1.152992    5.161984 H         1 <1>         0.151600 
    106 H         -10.311582   -2.219819    6.540659 H         1 <1>         0.149300 
    107 H         -10.937432   -0.565389    6.591692 H         1 <1>         0.154600 
    108 H          -7.584971   -1.610880    5.276570 H         1 <1>         0.144000 
    109 H          -7.838736   -2.652807    6.650157 H         1 <1>         0.135600 
    110 H          -5.949178   -0.237094    6.597368 H         1 <1>         0.144000 
    111 H          -6.224496   -1.261421    7.997389 H         1 <1>         0.143300 
    112 H          -5.335403   -3.259290    6.799473 H         1 <1>         0.117400 
    113 H          -2.752100   -0.388280    5.342826 H         1 <1>         0.152400 
    114 H          -4.452895    0.095354    5.280876 H         1 <1>         0.155800 
    115 H          -3.719485   -0.769628    3.923278 H         1 <1>         0.155400 
    116 H          -3.124117   -3.206256    4.126875 H         1 <1>         0.147900 
    117 H          -2.137417   -2.840613    5.516708 H         1 <1>         0.136000 
    118 H          -3.443997   -4.510060    6.879045 H         1 <1>         0.143600 
    119 H          -4.418932   -4.889605    5.466482 H         1 <1>         0.143200 
    120 H          -1.371088   -5.327802    5.766281 H         1 <1>         0.108600 
    121 H          -4.627129   -6.482243    4.223709 H         1 <1>         0.155600 
    122 H          -3.942858   -8.107996    4.073844 H         1 <1>         0.147200 
    123 H          -3.699777   -6.927689    2.789892 H         1 <1>         0.159200 
    124 H          -0.408474   -7.113836    4.842558 H         1 <1>         0.135900 
    125 H          -1.458492   -8.494940    4.540075 H         1 <1>         0.133000 
    126 H           0.023252   -8.171871    2.662669 H         1 <1>         0.141600 
    127 H          -1.626082   -7.907835    2.135527 H         1 <1>         0.138600 
    128 H           0.305357   -5.618727    2.890707 H         1 <1>         0.115700 
    129 H          -2.169763   -7.021966    0.391759 H         1 <1>         0.152900 
    130 H          -2.620091   -5.360972   -0.027886 H         1 <1>         0.154900 
    131 H          -1.292332   -6.150101   -0.870338 H         1 <1>         0.147400 
    132 H          -1.142747   -3.433668    0.607054 H         1 <1>         0.164000 
    133 H           0.183343   -4.171118   -0.251947 H         1 <1>         0.131700 
    134 H           1.594878   -4.073012    1.822819 H         1 <1>         0.146300 
    135 H           0.254717   -3.347635    2.701816 H         1 <1>         0.152900 
    136 H           1.692889   -2.120820    0.252152 H         1 <1>         0.118200 
    137 H          -0.781962   -0.090646    2.800823 H         1 <1>         0.167400 
    138 H           0.746204    0.056769    3.666995 H         1 <1>         0.175900 
    139 H          -0.069967   -1.516203    3.558201 H         1 <1>         0.162000 
    140 H           2.316260    0.759194    1.652984 H         1 <1>         0.212400 
    141 H           1.915807    0.090657    0.067092 H         1 <1>         0.170700 
    142 H          -0.608863   -2.001105   -2.113713 H         1 <1>         0.178800 
    143 H           0.730702   -2.887391   -4.015955 H         1 <1>         0.145200 
    144 H           2.443243   -1.440680   -5.082056 H         1 <1>         0.145000 
    145 H           3.601812    0.645975   -5.264668 H         1 <1>         0.139300 
    146 H           3.994251    2.983201   -4.535922 H         1 <1>         0.141500 
    147 H           2.634937    3.930001   -2.669736 H         1 <1>         0.144600 
    148 H           0.947306    2.597385   -1.554271 H         1 <1>         0.154800 
    149 H          -2.287213    1.613368   -1.912517 H         1 <1>         0.138700 
    150 H          -3.907269    1.439762   -0.063960 H         1 <1>         0.152900 
    151 H          -4.605599    2.324886   -1.434332 H         1 <1>         0.138700 
    152 H          -4.054631    3.212431    0.001089 H         1 <1>         0.176100 
    153 H          -1.373672    3.787060   -2.700853 H         1 <1>         0.136300 
    154 H          -3.113709    3.648965   -3.001491 H         1 <1>         0.139900 
    155 H          -2.524533    4.650845   -1.658488 H         1 <1>         0.184300 
    156 H          -0.131928    4.322737    2.275420 H         1 <1>         0.353700 
@<TRIPOS>BOND
     1   14   91 1    
     2   24  105 1    
     3   24  107 1    
     4   14   89 1    
     5   14   90 1    
     6   13   14 1    
     7   24  106 1    
     8   16   95 1    
     9   23   24 1    
    10   62  151 1    
    11   63  154 1    
    12   21  103 1    
    13   11   86 1    
    14   16   94 1    
    15   16   17 1    
    16   15   16 1    
    17   62  150 1    
    18   62  152 1    
    19   61   62 1    
    20   13   15 1    
    21   12   13 2    
    22   17   96 1    
    23   25  108 1    
    24   23   25 1    
    25   22   23 2    
    26   63  155 1    
    27   61   63 1    
    28   63  153 1    
    29   17   18 2    
    30   61  149 1    
    31   15   92 1    
    32   21  102 1    
    33   21   22 1    
    34   20   21 1    
    35   15   93 1    
    36   11   12 1    
    37   11   87 1    
    38   10   11 1    
    39   39  130 1    
    40   60   61 1    
    41   25  109 1    
    42   19   97 1    
    43   25   26 1    
    44   12   88 1    
    45   22  104 1    
    46   18   20 1    
    47   18   19 1    
    48   10   85 1    
    49   10   84 1    
    50   19   99 1    
    51   52  143 1    
    52   39  129 1    
    53   39  131 1    
    54   20  101 1    
    55   51  142 1    
    56   20  100 1    
    57   19   98 1    
    58    8   10 1    
    59   34  123 1    
    60   38   39 1    
    61   34  121 1    
    62   51   52 ar   
    63   52   53 ar   
    64   48   49 2    
    65   50   51 ar   
    66   34  122 1    
    67   33   34 1    
    68   53  144 1    
    69   54   53 ar   
    70   48   50 1    
    71   50   59 ar   
    72   60   64 ar   
    73   47   60 ar   
    74   47   48 1    
    75   26  110 1    
    76   26   27 1    
    77   26  111 1    
    78   40  132 1    
    79   64   65 2    
    80   29  115 1    
    81   36  127 1    
    82   31  119 1    
    83   59   54 ar   
    84   54   55 ar   
    85   59   58 ar   
    86   27  112 1    
    87   27   28 2    
    88   38   40 1    
    89   37   38 2    
    90   29  114 1    
    91    8    9 1    
    92    7    8 2    
    93   40  133 1    
    94   66   64 ar   
    95   46   47 ar   
    96   30  116 1    
    97    7   80 1    
    98   55  145 1    
    99    9   81 1    
   100   55   56 ar   
   101   40   41 1    
   102   28   29 1    
   103   28   30 1    
   104   29  113 1    
   105   58  148 1    
   106   58   57 ar   
   107    9   82 1    
   108   32   33 2    
   109   33   35 1    
   110    9   83 1    
   111    6    7 1    
   112   57   56 ar   
   113   56  146 1    
   114   30   31 1    
   115   30  117 1    
   116   31   32 1    
   117   31  118 1    
   118   36   37 1    
   119   35   36 1    
   120   36  126 1    
   121   57  147 1    
   122    4   74 1    
   123   37  128 1    
   124   32  120 1    
   125   35  125 1    
   126   35  124 1    
   127   44  137 1    
   128   66  156 1    
   129   67   66 ar   
   130   46   67 ar   
   131   45   46 1    
   132    4   75 1    
   133   41   42 1    
   134   41  135 1    
   135   41  134 1    
   136   42  136 1    
   137    4   73 1    
   138    3    4 1    
   139   42   43 2    
   140   45  141 1    
   141   43   45 1    
   142   43   44 1    
   143    6   78 1    
   144    6   79 1    
   145    5    6 1    
   146   67   68 2    
   147   45  140 1    
   148   44  139 1    
   149   44  138 1    
   150    5   77 1    
   151    3    5 1    
   152    5   76 1    
   153    2    3 2    
   154    1   69 1    
   155    2    1 1    
   156    2   72 1    
   157    1   70 1    
   158    1   71 1    
@<TRIPOS>SUBSTRUCTURE
     1 ****      127 TEMP              0 ****  ****    0 ROOT 
