#	Name:			LJ-2006-CPB-1249-12
#	Creating user name:	Administrator
#	Creation time:		Sun Jul 05 16:45:54 2020

#	Modifying user name:	Administrator
#	Modification time:	Sun Jul 05 16:48:40 2020

@<TRIPOS>MOLECULE
LJ-2006-CPB-1249-12
   43    45     1     0     0
SMALL
MULLIKEN_CHARGES
INVALID_CHARGES
Gaussian 16 #p B3LYP/6-31G* opt
@<TRIPOS>ATOM
      1 C           0.954123   -1.863035    1.998774 C.2       1 <1>        -0.321500 
      2 C           1.179957   -0.560738    2.161042 C.2       1 <1>        -0.042900 
      3 C           1.531672    0.375973    1.035406 C.3       1 <1>        -0.210000 
      4 N           0.564026    1.491619    0.879515 N.ar      1 <1>        -0.524700 
      5 C          -0.445708    1.490940   -0.078901 C.ar      1 <1>         0.223900 
      6 C          -0.582316    0.227812   -0.919125 C.2       1 <1>         0.296900 
      7 O          -1.166152   -0.705109   -0.383740 O.2       1 <1>        -0.440100 
      8 C          -0.112762    0.135884   -2.339345 C.ar      1 <1>         0.007200 
      9 C          -0.670309   -0.925115   -3.046172 C.ar      1 <1>        -0.160300 
     10 C          -0.380795   -1.154000   -4.401763 C.ar      1 <1>        -0.135000 
     11 C           0.486200   -0.312998   -5.061220 C.ar      1 <1>        -0.175000 
     12 C           1.103985    0.773244   -4.390454 C.ar      1 <1>         0.130400 
     13 C           2.014797    1.612798   -5.086682 C.ar      1 <1>        -0.191700 
     14 C           2.644440    2.656933   -4.452912 C.ar      1 <1>        -0.128900 
     15 C           2.385666    2.893743   -3.084842 C.ar      1 <1>        -0.138900 
     16 C           1.503985    2.101567   -2.380969 C.ar      1 <1>        -0.192600 
     17 C           0.817856    1.019760   -3.000294 C.ar      1 <1>         0.089500 
     18 C          -1.349294    2.499700   -0.208343 C.ar      1 <1>         0.038400 
     19 C          -2.487086    2.505303   -1.202024 C.3       1 <1>        -0.332200 
     20 C          -3.815282    2.033181   -0.582913 C.3       1 <1>        -0.448200 
     21 C          -1.269416    3.637529    0.709488 C.ar      1 <1>         0.602900 
     22 O          -2.019943    4.603496    0.712353 O.2       1 <1>        -0.509600 
     23 N          -0.214890    3.558480    1.631411 N.ar      1 <1>        -0.704000 
     24 C           0.703776    2.539002    1.793152 C.ar      1 <1>         0.782600 
     25 O           1.571425    2.555826    2.652959 O.2       1 <1>        -0.521100 
     26 H           0.731871   -2.510209    2.842659 H         1 <1>         0.149400 
     27 H           0.972924   -2.333092    1.018208 H         1 <1>         0.147300 
     28 H           1.147576   -0.106876    3.148970 H         1 <1>         0.162300 
     29 H           2.501568    0.843445    1.226209 H         1 <1>         0.195800 
     30 H           1.592624   -0.157745    0.085237 H         1 <1>         0.167000 
     31 H          -1.357472   -1.576796   -2.517786 H         1 <1>         0.174400 
     32 H          -0.847334   -1.986148   -4.920476 H         1 <1>         0.146200 
     33 H           0.716329   -0.471352   -6.112135 H         1 <1>         0.145200 
     34 H           2.207611    1.405968   -6.136471 H         1 <1>         0.139300 
     35 H           3.339997    3.292210   -4.993433 H         1 <1>         0.141400 
     36 H           2.889002    3.711123   -2.575826 H         1 <1>         0.143800 
     37 H           1.345556    2.319495   -1.334884 H         1 <1>         0.156400 
     38 H          -2.607409    3.529890   -1.569527 H         1 <1>         0.170300 
     39 H          -2.240245    1.880245   -2.066550 H         1 <1>         0.142100 
     40 H          -4.095984    2.676640    0.256532 H         1 <1>         0.169600 
     41 H          -4.620071    2.073008   -1.325794 H         1 <1>         0.144100 
     42 H          -3.732999    1.003263   -0.218772 H         1 <1>         0.156700 
     43 H          -0.133814    4.324525    2.290796 H         1 <1>         0.353600 
@<TRIPOS>BOND
     1   20   41 1    
     2   20   42 1    
     3   20   40 1    
     4   19   20 1    
     5    9   31 1    
     6   10   32 1    
     7    6    7 2    
     8   19   39 1    
     9    9   10 ar   
    10    8    9 ar   
    11   10   11 ar   
    12   19   38 1    
    13   18   19 1    
    14    6    8 1    
    15    5    6 1    
    16    1   26 1    
    17    8   17 ar   
    18   11   33 1    
    19   12   11 ar   
    20    1   27 1    
    21    5   18 ar   
    22   18   21 ar   
    23    2    1 2    
    24    4    5 ar   
    25   21   22 2    
    26   21   23 ar   
    27   17   12 ar   
    28   17   16 ar   
    29   12   13 ar   
    30    2   28 1    
    31    3    2 1    
    32    4    3 1    
    33    4   24 ar   
    34    3   30 1    
    35   23   24 ar   
    36   23   43 1    
    37    3   29 1    
    38   24   25 2    
    39   13   34 1    
    40   13   14 ar   
    41   16   37 1    
    42   16   15 ar   
    43   15   14 ar   
    44   15   36 1    
    45   14   35 1    
@<TRIPOS>SUBSTRUCTURE
     1 ****       41 TEMP              0 ****  ****    0 ROOT 
