#	Name:			LJ-2007-EJMC-198-11
#	Creating user name:	Administrator
#	Creation time:		Sun Jul 05 16:45:56 2020

#	Modifying user name:	Administrator
#	Modification time:	Sun Jul 05 16:48:40 2020

@<TRIPOS>MOLECULE
LJ-2007-EJMC-198-11
   50    53     1     0     0
SMALL
MULLIKEN_CHARGES
INVALID_CHARGES
Gaussian 16 #p B3LYP/6-31G* opt
@<TRIPOS>ATOM
      1 C          -2.479665    2.561155   -1.200844 C.3       1 <1>        -0.511300 
      2 C          -1.349279    2.501497   -0.206469 C.ar      1 <1>         0.016300 
      3 C          -0.438122    1.493723   -0.095333 C.ar      1 <1>         0.249300 
      4 C          -0.565395    0.240224   -0.962164 C.2       1 <1>         0.326000 
      5 O          -0.849791   -0.804518   -0.387766 O.2       1 <1>        -0.465500 
      6 C          -0.364378    0.361112   -2.429408 C.ar      1 <1>         0.052100 
      7 C           0.320635    1.474033   -2.903603 C.ar      1 <1>        -0.181700 
      8 C           0.609299    1.644931   -4.270387 C.ar      1 <1>        -0.134000 
      9 C           0.190488    0.698712   -5.176347 C.ar      1 <1>        -0.171800 
     10 C          -0.524926   -0.452830   -4.755408 C.ar      1 <1>         0.132600 
     11 C          -0.961642   -1.412813   -5.706584 C.ar      1 <1>        -0.195400 
     12 C          -1.660082   -2.530135   -5.313099 C.ar      1 <1>        -0.127400 
     13 C          -1.947880   -2.725197   -3.943954 C.ar      1 <1>        -0.136100 
     14 C          -1.535279   -1.816410   -2.991397 C.ar      1 <1>        -0.189300 
     15 C          -0.809930   -0.649959   -3.360242 C.ar      1 <1>         0.072200 
     16 N           0.551442    1.477739    0.888817 N.ar      1 <1>        -0.551100 
     17 C           1.510478    0.352649    1.038040 C.3       1 <1>        -0.237300 
     18 C           2.573394    0.341605   -0.022490 C.2       1 <1>        -0.112900 
     19 C           2.813900   -0.713513   -0.816177 C.2       1 <1>        -0.172800 
     20 C           3.864645   -0.841590   -1.836287 C.ar      1 <1>         0.170300 
     21 C           4.930848    0.068568   -1.960831 C.ar      1 <1>        -0.182200 
     22 C           5.893340   -0.091847   -2.953280 C.ar      1 <1>        -0.130900 
     23 C           5.819757   -1.168483   -3.842237 C.ar      1 <1>        -0.128300 
     24 C           4.774950   -2.085915   -3.725788 C.ar      1 <1>        -0.130300 
     25 C           3.811279   -1.924118   -2.731615 C.ar      1 <1>        -0.192500 
     26 C           0.702988    2.534687    1.792992 C.ar      1 <1>         0.779800 
     27 O           1.577519    2.575189    2.644673 O.2       1 <1>        -0.516400 
     28 N          -0.224165    3.549281    1.642603 N.ar      1 <1>        -0.698500 
     29 C          -1.266611    3.638070    0.715730 C.ar      1 <1>         0.602900 
     30 O          -2.013795    4.606406    0.708621 O.2       1 <1>        -0.504400 
     31 H          -2.677289    1.599827   -1.677260 H         1 <1>         0.158900 
     32 H          -2.277036    3.298246   -1.987724 H         1 <1>         0.171600 
     33 H          -3.388398    2.893877   -0.690121 H         1 <1>         0.185100 
     34 H           0.656817    2.228499   -2.200911 H         1 <1>         0.154900 
     35 H           1.159645    2.521290   -4.598916 H         1 <1>         0.145300 
     36 H           0.402836    0.819364   -6.235970 H         1 <1>         0.144300 
     37 H          -0.734295   -1.242692   -6.756178 H         1 <1>         0.136600 
     38 H          -1.991801   -3.258304   -6.047907 H         1 <1>         0.137700 
     39 H          -2.502682   -3.606420   -3.633306 H         1 <1>         0.139500 
     40 H          -1.753617   -1.990173   -1.947634 H         1 <1>         0.181100 
     41 H           0.947550   -0.580796    1.050746 H         1 <1>         0.199600 
     42 H           1.959374    0.506413    2.021474 H         1 <1>         0.213000 
     43 H           3.173907    1.247516   -0.094872 H         1 <1>         0.140600 
     44 H           2.158633   -1.580171   -0.720581 H         1 <1>         0.141100 
     45 H           5.016233    0.899026   -1.265859 H         1 <1>         0.132200 
     46 H           6.710455    0.620839   -3.029258 H         1 <1>         0.132800 
     47 H           6.575572   -1.293606   -4.612813 H         1 <1>         0.131900 
     48 H           4.710160   -2.929770   -4.407579 H         1 <1>         0.132600 
     49 H           2.997747   -2.640716   -2.646814 H         1 <1>         0.135500 
     50 H          -0.130223    4.320077    2.294545 H         1 <1>         0.354300 
@<TRIPOS>BOND
     1   13   39 1    
     2   17   41 1    
     3   14   40 1    
     4    4    5 2    
     5   19   44 1    
     6   17   42 1    
     7   14   13 ar   
     8   13   12 ar   
     9   25   49 1    
    10   17   18 1    
    11   16   17 1    
    12   15   14 ar   
    13   18   19 2    
    14   19   20 1    
    15   12   38 1    
    16    3    4 1    
    17    4    6 1    
    18   12   11 ar   
    19   20   25 ar   
    20   25   24 ar   
    21   18   43 1    
    22   16   26 ar   
    23    3   16 ar   
    24   26   27 2    
    25   24   48 1    
    26   20   21 ar   
    27   28   26 ar   
    28    2    3 ar   
    29    6   15 ar   
    30   15   10 ar   
    31   24   23 ar   
    32    6    7 ar   
    33    1   31 1    
    34   28   50 1    
    35   29   28 ar   
    36    2   29 ar   
    37    2    1 1    
    38   11   10 ar   
    39   11   37 1    
    40    1   33 1    
    41   21   45 1    
    42   21   22 ar   
    43   10    9 ar   
    44   29   30 2    
    45    1   32 1    
    46   23   22 ar   
    47   23   47 1    
    48   22   46 1    
    49    7   34 1    
    50    7    8 ar   
    51    9    8 ar   
    52    9   36 1    
    53    8   35 1    
@<TRIPOS>SUBSTRUCTURE
     1 ****       39 TEMP              0 ****  ****    0 ROOT 
