#	Name:			LJ-2007-EJMC-198-13
#	Creating user name:	Administrator
#	Creation time:		Sun Jul 05 16:45:56 2020

#	Modifying user name:	Administrator
#	Modification time:	Sun Jul 05 16:48:40 2020

@<TRIPOS>MOLECULE
LJ-2007-EJMC-198-13
   47    50     1     0     0
SMALL
MULLIKEN_CHARGES
INVALID_CHARGES
Gaussian 16 #p B3LYP/6-31G* opt
@<TRIPOS>ATOM
      1 C          -2.464143    2.557369   -1.220064 C.3       1 <1>        -0.510100 
      2 C          -1.359117    2.493758   -0.200778 C.ar      1 <1>         0.012300 
      3 C          -0.452289    1.489300   -0.087601 C.ar      1 <1>         0.247900 
      4 C          -0.520620    0.275999   -1.018736 C.2       1 <1>         0.330100 
      5 O          -1.409016   -0.538074   -0.823635 O.2       1 <1>        -0.445100 
      6 C           0.472243    0.193137   -2.128804 C.ar      1 <1>         0.034300 
      7 C           1.185511    1.342275   -2.451638 C.ar      1 <1>        -0.193100 
      8 C           2.118841    1.368498   -3.505877 C.ar      1 <1>        -0.135800 
      9 C           2.352815    0.225773   -4.234431 C.ar      1 <1>        -0.174200 
     10 C           1.664395   -0.981858   -3.945005 C.ar      1 <1>         0.133000 
     11 C           1.927687   -2.156344   -4.699034 C.ar      1 <1>        -0.195400 
     12 C           1.270404   -3.332944   -4.425556 C.ar      1 <1>        -0.126500 
     13 C           0.319604   -3.374214   -3.381699 C.ar      1 <1>        -0.136200 
     14 C           0.034332   -2.252137   -2.631364 C.ar      1 <1>        -0.191400 
     15 C           0.695472   -1.018291   -2.883795 C.ar      1 <1>         0.073900 
     16 N           0.570908    1.494653    0.866615 N.ar      1 <1>        -0.555300 
     17 C           1.357658    0.296553    1.126995 C.3       1 <1>         0.077100 
     18 O           0.528051   -0.637166    1.777603 O.3       1 <1>        -0.459600 
     19 C           1.059809   -1.962742    1.813444 C.3       1 <1>        -0.046400 
     20 C           2.254328   -2.130149    2.725017 C.3       1 <1>        -0.114500 
     21 C           2.405649   -3.411475    3.514730 C.3       1 <1>        -0.321300 
     22 C           2.052918   -2.126927    4.219687 C.3       1 <1>        -0.299100 
     23 C           0.706577    2.538912    1.797567 C.ar      1 <1>         0.792500 
     24 O           1.563652    2.561360    2.663681 O.2       1 <1>        -0.509500 
     25 N          -0.209143    3.559150    1.629734 N.ar      1 <1>        -0.702000 
     26 C          -1.266878    3.636191    0.713776 C.ar      1 <1>         0.603200 
     27 O          -2.013733    4.603268    0.708639 O.2       1 <1>        -0.500000 
     28 H          -2.345633    3.438321   -1.861496 H         1 <1>         0.170100 
     29 H          -3.429669    2.670030   -0.715291 H         1 <1>         0.183500 
     30 H          -2.506845    1.664676   -1.845509 H         1 <1>         0.165300 
     31 H           1.008629    2.253110   -1.889466 H         1 <1>         0.157800 
     32 H           2.646135    2.289518   -3.734971 H         1 <1>         0.146300 
     33 H           3.073534    0.230120   -5.048714 H         1 <1>         0.144900 
     34 H           2.663631   -2.105542   -5.497752 H         1 <1>         0.137300 
     35 H           1.478688   -4.226578   -5.007163 H         1 <1>         0.138800 
     36 H          -0.200604   -4.303890   -3.167422 H         1 <1>         0.140500 
     37 H          -0.710442   -2.296042   -1.849713 H         1 <1>         0.186500 
     38 H           2.200136    0.608719    1.747588 H         1 <1>         0.192100 
     39 H           1.729687   -0.107337    0.176145 H         1 <1>         0.142900 
     40 H           1.307545   -2.287604    0.788879 H         1 <1>         0.131500 
     41 H           0.229060   -2.581670    2.166686 H         1 <1>         0.150000 
     42 H           3.180523   -1.686405    2.362643 H         1 <1>         0.143000 
     43 H           1.631154   -4.167906    3.410570 H         1 <1>         0.151800 
     44 H           3.404624   -3.818804    3.642206 H         1 <1>         0.154000 
     45 H           2.807987   -1.649556    4.837526 H         1 <1>         0.157300 
     46 H           1.037516   -2.004732    4.587601 H         1 <1>         0.162300 
     47 H          -0.124593    4.327895    2.285537 H         1 <1>         0.354900 
@<TRIPOS>BOND
     1    1   29 1    
     2   13   36 1    
     3    1   30 1    
     4    4    5 2    
     5   14   37 1    
     6    1   28 1    
     7    2    1 1    
     8   19   41 1    
     9   14   13 ar   
    10   13   12 ar   
    11   15   14 ar   
    12   21   43 1    
    13    3    4 1    
    14    4    6 1    
    15   22   46 1    
    16    3    2 ar   
    17    2   26 ar   
    18   26   27 2    
    19   12   35 1    
    20   18   19 1    
    21   19   40 1    
    22   19   20 1    
    23   17   18 1    
    24   12   11 ar   
    25   16    3 ar   
    26   26   25 ar   
    27    6   15 ar   
    28   15   10 ar   
    29   22   21 1    
    30   20   21 1    
    31   21   44 1    
    32   20   22 1    
    33   22   45 1    
    34    6    7 ar   
    35   20   42 1    
    36   16   17 1    
    37   16   23 ar   
    38   25   47 1    
    39   25   23 ar   
    40   11   10 ar   
    41   11   34 1    
    42   17   39 1    
    43   17   38 1    
    44   10    9 ar   
    45   23   24 2    
    46    7   31 1    
    47    7    8 ar   
    48    9    8 ar   
    49    9   33 1    
    50    8   32 1    
@<TRIPOS>SUBSTRUCTURE
     1 ****       36 TEMP              0 ****  ****    0 ROOT 
