#	Name:			LJ-2007-EJMC-198-14
#	Creating user name:	Administrator
#	Creation time:		Sun Jul 05 16:45:56 2020

#	Modifying user name:	Administrator
#	Modification time:	Sun Jul 05 16:48:40 2020

@<TRIPOS>MOLECULE
LJ-2007-EJMC-198-14
   50    53     1     0     0
SMALL
MULLIKEN_CHARGES
INVALID_CHARGES
Gaussian 16 #p B3LYP/6-31G* opt
@<TRIPOS>ATOM
      1 C          -2.427559    2.569278   -1.254754 C.3       1 <1>        -0.510800 
      2 C          -1.338488    2.507568   -0.218475 C.ar      1 <1>         0.017500 
      3 C          -0.443910    1.494245   -0.091834 C.ar      1 <1>         0.250900 
      4 C          -0.423744    0.333967   -1.092452 C.2       1 <1>         0.307900 
      5 O           0.249307    0.495789   -2.099109 O.2       1 <1>        -0.444900 
      6 C          -1.223873   -0.881784   -0.781119 C.ar      1 <1>         0.052000 
      7 C          -1.979546   -0.880439    0.387497 C.ar      1 <1>        -0.196900 
      8 C          -2.764955   -1.983538    0.771207 C.ar      1 <1>        -0.136000 
      9 C          -2.794089   -3.104780   -0.024743 C.ar      1 <1>        -0.173000 
     10 C          -2.045299   -3.168874   -1.229052 C.ar      1 <1>         0.133300 
     11 C          -2.088781   -4.336457   -2.036231 C.ar      1 <1>        -0.195500 
     12 C          -1.368823   -4.413299   -3.205427 C.ar      1 <1>        -0.126200 
     13 C          -0.575991   -3.316136   -3.608005 C.ar      1 <1>        -0.135200 
     14 C          -0.509781   -2.165153   -2.849636 C.ar      1 <1>        -0.191100 
     15 C          -1.239918   -2.048958   -1.634889 C.ar      1 <1>         0.068500 
     16 N           0.540833    1.476076    0.897208 N.ar      1 <1>        -0.557600 
     17 C           1.603603    0.481868    0.917955 C.3       1 <1>         0.103800 
     18 O           2.688824    0.981923    0.181286 O.3       1 <1>        -0.458300 
     19 C           3.927199    0.323983    0.448875 C.3       1 <1>        -0.102200 
     20 C           5.063242    1.233768    0.050853 C.ar      1 <1>         0.146400 
     21 C           5.113544    2.540404    0.555652 C.ar      1 <1>        -0.165700 
     22 C           6.171926    3.382097    0.220295 C.ar      1 <1>        -0.133300 
     23 C           7.194365    2.927070   -0.617928 C.ar      1 <1>        -0.126200 
     24 C           7.149303    1.627944   -1.123063 C.ar      1 <1>        -0.128900 
     25 C           6.083777    0.787136   -0.792117 C.ar      1 <1>        -0.182300 
     26 C           0.707166    2.543043    1.795089 C.ar      1 <1>         0.805100 
     27 O           1.590806    2.573467    2.635154 O.2       1 <1>        -0.516400 
     28 N          -0.235029    3.541845    1.657628 N.ar      1 <1>        -0.705200 
     29 C          -1.265569    3.637959    0.710032 C.ar      1 <1>         0.602300 
     30 O          -2.015831    4.602389    0.706834 O.2       1 <1>        -0.500400 
     31 H          -2.350193    3.501670   -1.823813 H         1 <1>         0.184500 
     32 H          -3.415448    2.575811   -0.779403 H         1 <1>         0.171900 
     33 H          -2.382336    1.733580   -1.956077 H         1 <1>         0.160300 
     34 H          -1.975157   -0.000703    1.021973 H         1 <1>         0.158300 
     35 H          -3.342401   -1.940050    1.689628 H         1 <1>         0.146600 
     36 H          -3.396625   -3.964684    0.258034 H         1 <1>         0.145900 
     37 H          -2.705207   -5.170180   -1.709055 H         1 <1>         0.137500 
     38 H          -1.408085   -5.310223   -3.817242 H         1 <1>         0.139200 
     39 H          -0.007765   -3.376464   -4.532355 H         1 <1>         0.141700 
     40 H           0.098851   -1.333830   -3.174255 H         1 <1>         0.190400 
     41 H           1.880780    0.319667    1.964784 H         1 <1>         0.170800 
     42 H           1.215162   -0.453703    0.497774 H         1 <1>         0.148000 
     43 H           3.987728    0.092601    1.525351 H         1 <1>         0.143900 
     44 H           3.982419   -0.630289   -0.096866 H         1 <1>         0.135600 
     45 H           4.312879    2.888905    1.202502 H         1 <1>         0.157400 
     46 H           6.201982    4.394716    0.614003 H         1 <1>         0.131500 
     47 H           8.019945    3.584683   -0.877229 H         1 <1>         0.128400 
     48 H           7.937009    1.269524   -1.780580 H         1 <1>         0.128100 
     49 H           6.044982   -0.222329   -1.195673 H         1 <1>         0.123200 
     50 H          -0.141626    4.319240    2.301850 H         1 <1>         0.354900 
@<TRIPOS>BOND
     1    8   35 1    
     2   17   41 1    
     3    9   36 1    
     4   19   43 1    
     5   26   27 2    
     6    8    9 ar   
     7    7    8 ar   
     8   10    9 ar   
     9   17   42 1    
    10   16   17 1    
    11   17   18 1    
    12    7   34 1    
    13   19   44 1    
    14   18   19 1    
    15   19   20 1    
    16   11   37 1    
    17    6    7 ar   
    18   16   26 ar   
    19   26   28 ar   
    20    3   16 ar   
    21   21   45 1    
    22   10   11 ar   
    23   15   10 ar   
    24   28   50 1    
    25   20   21 ar   
    26   20   25 ar   
    27   11   12 ar   
    28   28   29 ar   
    29   21   22 ar   
    30   25   49 1    
    31    6   15 ar   
    32    4    6 1    
    33   25   24 ar   
    34   15   14 ar   
    35   22   46 1    
    36   22   23 ar   
    37    3    4 1    
    38    3    2 ar   
    39   12   38 1    
    40   12   13 ar   
    41   24   23 ar   
    42   24   48 1    
    43   29    2 ar   
    44   29   30 2    
    45    4    5 2    
    46   23   47 1    
    47    2    1 1    
    48   14   13 ar   
    49   14   40 1    
    50   13   39 1    
    51    1   32 1    
    52    1   33 1    
    53    1   31 1    
@<TRIPOS>SUBSTRUCTURE
     1 ****       27 TEMP              0 ****  ****    0 ROOT 
