#	Name:			LJ-2007-EJMC-198-19
#	Creating user name:	Administrator
#	Creation time:		Sun Jul 05 16:45:57 2020

#	Modifying user name:	Administrator
#	Modification time:	Sun Jul 05 16:48:40 2020

@<TRIPOS>MOLECULE
LJ-2007-EJMC-198-19
   46    48     1     0     0
SMALL
MULLIKEN_CHARGES
INVALID_CHARGES
Gaussian 16 #p B3LYP/6-31G* opt
@<TRIPOS>ATOM
      1 C           2.565626   -2.369014    1.782004 C.3       1 <1>        -0.464000 
      2 C           1.439508   -1.991718    0.823956 C.3       1 <1>        -0.034100 
      3 O           0.764082   -0.786735    1.192629 O.3       1 <1>        -0.477400 
      4 C           1.512258    0.389618    0.966364 C.3       1 <1>         0.077400 
      5 N           0.567062    1.497615    0.868778 N.ar      1 <1>        -0.567100 
      6 C          -0.455795    1.481808   -0.083617 C.ar      1 <1>         0.248900 
      7 C          -0.408873    0.329545   -1.088804 C.2       1 <1>         0.343300 
      8 O           0.561926    0.296050   -1.836271 O.2       1 <1>        -0.473200 
      9 C          -1.529768   -0.646662   -1.123055 C.ar      1 <1>         0.038500 
     10 C          -2.306726   -0.781206    0.020976 C.ar      1 <1>        -0.173500 
     11 C          -3.355464   -1.717247    0.099045 C.ar      1 <1>        -0.138900 
     12 C          -3.639128   -2.514118   -0.985913 C.ar      1 <1>        -0.175200 
     13 C          -2.886246   -2.414221   -2.185322 C.ar      1 <1>         0.131300 
     14 C          -3.198535   -3.235602   -3.301423 C.ar      1 <1>        -0.195700 
     15 C          -2.478381   -3.143991   -4.469208 C.ar      1 <1>        -0.127400 
     16 C          -1.413736   -2.219570   -4.561611 C.ar      1 <1>        -0.136700 
     17 C          -1.079085   -1.409132   -3.497077 C.ar      1 <1>        -0.186600 
     18 C          -1.800088   -1.476610   -2.272727 C.ar      1 <1>         0.074400 
     19 C          -1.353346    2.497590   -0.210434 C.ar      1 <1>         0.019900 
     20 C          -2.411897    2.603396   -1.283603 C.3       1 <1>        -0.332900 
     21 C          -1.987764    3.531752   -2.437280 C.3       1 <1>        -0.447400 
     22 C          -1.262016    3.637995    0.710275 C.ar      1 <1>         0.611200 
     23 O          -2.006109    4.608889    0.706781 O.2       1 <1>        -0.507100 
     24 N          -0.231249    3.542260    1.651336 N.ar      1 <1>        -0.700200 
     25 C           0.707168    2.538187    1.795549 C.ar      1 <1>         0.782400 
     26 O           1.574263    2.572247    2.652966 O.2       1 <1>        -0.511400 
     27 H           2.985143   -3.342424    1.502508 H         1 <1>         0.151300 
     28 H           2.189806   -2.436207    2.808205 H         1 <1>         0.164600 
     29 H           3.381454   -1.637814    1.762096 H         1 <1>         0.156600 
     30 H           0.659280   -2.758400    0.829082 H         1 <1>         0.155900 
     31 H           1.814285   -1.899133   -0.207005 H         1 <1>         0.144700 
     32 H           2.077665    0.309129    0.030410 H         1 <1>         0.171700 
     33 H           2.179184    0.629937    1.795310 H         1 <1>         0.197300 
     34 H          -2.084997   -0.167375    0.886398 H         1 <1>         0.162000 
     35 H          -3.932664   -1.802792    1.014739 H         1 <1>         0.144400 
     36 H          -4.450038   -3.237374   -0.940843 H         1 <1>         0.142500 
     37 H          -4.024012   -3.937852   -3.213285 H         1 <1>         0.135700 
     38 H          -2.725393   -3.775357   -5.318073 H         1 <1>         0.136800 
     39 H          -0.846879   -2.145822   -5.485758 H         1 <1>         0.138400 
     40 H          -0.251877   -0.718713   -3.581409 H         1 <1>         0.178300 
     41 H          -3.320330    3.005226   -0.822005 H         1 <1>         0.169100 
     42 H          -2.659095    1.615699   -1.680096 H         1 <1>         0.149700 
     43 H          -1.780186    4.539065   -2.064803 H         1 <1>         0.171700 
     44 H          -1.088712    3.153579   -2.936881 H         1 <1>         0.148800 
     45 H          -2.788192    3.602595   -3.182281 H         1 <1>         0.146800 
     46 H          -0.144073    4.312308    2.305045 H         1 <1>         0.355100 
@<TRIPOS>BOND
     1   16   39 1    
     2   17   40 1    
     3   21   44 1    
     4    7    8 2    
     5   17   16 ar   
     6   16   15 ar   
     7    4   32 1    
     8   18   17 ar   
     9   21   43 1    
    10   21   45 1    
    11   20   21 1    
    12    2   31 1    
    13   15   38 1    
    14    1   29 1    
    15   15   14 ar   
    16    6    7 1    
    17    7    9 1    
    18    4   33 1    
    19    5    4 1    
    20    4    3 1    
    21    1   27 1    
    22    6    5 ar   
    23    5   25 ar   
    24   19    6 ar   
    25    2    1 1    
    26    1   28 1    
    27    9   18 ar   
    28   18   13 ar   
    29    3    2 1    
    30    2   30 1    
    31   25   26 2    
    32   25   24 ar   
    33   20   19 1    
    34   20   42 1    
    35   20   41 1    
    36   19   22 ar   
    37    9   10 ar   
    38   24   22 ar   
    39   24   46 1    
    40   22   23 2    
    41   14   13 ar   
    42   14   37 1    
    43   13   12 ar   
    44   10   34 1    
    45   10   11 ar   
    46   12   11 ar   
    47   12   36 1    
    48   11   35 1    
@<TRIPOS>SUBSTRUCTURE
     1 ****       44 TEMP              0 ****  ****    0 ROOT 
