#	Name:			LJ-2007-EJMC-198-18
#	Creating user name:	Administrator
#	Creation time:		Sun Jul 05 16:45:57 2020

#	Modifying user name:	Administrator
#	Modification time:	Sun Jul 05 16:48:40 2020

@<TRIPOS>MOLECULE
LJ-2007-EJMC-198-18
   52    55     1     0     0
SMALL
MULLIKEN_CHARGES
INVALID_CHARGES
Gaussian 16 #p B3LYP/6-31G* opt
@<TRIPOS>ATOM
      1 C          -3.874383    2.276435   -0.608275 C.3       1 <1>        -0.451000 
      2 C          -2.480645    2.519775   -1.213572 C.3       1 <1>        -0.331200 
      3 C          -1.361652    2.492554   -0.197324 C.ar      1 <1>         0.025100 
      4 C          -0.449184    1.489476   -0.075863 C.ar      1 <1>         0.222400 
      5 C          -0.466402    0.312533   -1.056104 C.2       1 <1>         0.318600 
      6 O           0.210394    0.432092   -2.069692 O.2       1 <1>        -0.460700 
      7 C          -1.302096   -0.872355   -0.726639 C.ar      1 <1>         0.059700 
      8 C          -1.940420   -0.891042    0.510259 C.ar      1 <1>        -0.195900 
      9 C          -2.731116   -1.978062    0.927910 C.ar      1 <1>        -0.136900 
     10 C          -2.891895   -3.059005    0.092932 C.ar      1 <1>        -0.172200 
     11 C          -2.272085   -3.098676   -1.183444 C.ar      1 <1>         0.133300 
     12 C          -2.455577   -4.222963   -2.031369 C.ar      1 <1>        -0.195200 
     13 C          -1.863081   -4.276256   -3.271237 C.ar      1 <1>        -0.126000 
     14 C          -1.061990   -3.197739   -3.706200 C.ar      1 <1>        -0.134800 
     15 C          -0.860062   -2.089610   -2.908869 C.ar      1 <1>        -0.189900 
     16 C          -1.455803   -1.998677   -1.620959 C.ar      1 <1>         0.069500 
     17 N           0.579473    1.497955    0.861855 N.ar      1 <1>        -0.538100 
     18 C           1.614567    0.439818    0.911225 C.3       1 <1>        -0.183800 
     19 C           2.811490    0.675086   -0.017412 C.3       1 <1>        -0.092800 
     20 C           3.707199    1.885183    0.309839 C.3       1 <1>        -0.272300 
     21 C           4.981656    1.592725   -0.498493 C.3       1 <1>        -0.270200 
     22 C           5.190748    0.063349   -0.357298 C.3       1 <1>        -0.272200 
     23 C           3.795965   -0.522028    0.012551 C.3       1 <1>        -0.282200 
     24 C           0.708187    2.537678    1.789487 C.ar      1 <1>         0.794600 
     25 O           1.568412    2.564240    2.655844 O.2       1 <1>        -0.522100 
     26 N          -0.233774    3.540143    1.649273 N.ar      1 <1>        -0.703800 
     27 C          -1.267666    3.638384    0.708341 C.ar      1 <1>         0.603100 
     28 O          -2.003818    4.616160    0.700021 O.2       1 <1>        -0.511800 
     29 H          -4.644454    2.351657   -1.384291 H         1 <1>         0.146000 
     30 H          -4.092028    3.023187    0.160269 H         1 <1>         0.175800 
     31 H          -3.945467    1.279746   -0.158758 H         1 <1>         0.138400 
     32 H          -2.285715    1.793709   -2.009335 H         1 <1>         0.150000 
     33 H          -2.473957    3.510040   -1.684057 H         1 <1>         0.171500 
     34 H          -1.830106   -0.043768    1.178078 H         1 <1>         0.162700 
     35 H          -3.208753   -1.953527    1.902524 H         1 <1>         0.147900 
     36 H          -3.501834   -3.905299    0.400091 H         1 <1>         0.146500 
     37 H          -3.077203   -5.042270   -1.678485 H         1 <1>         0.138000 
     38 H          -2.009292   -5.139779   -3.913930 H         1 <1>         0.139500 
     39 H          -0.594964   -3.238802   -4.686548 H         1 <1>         0.141300 
     40 H          -0.241575   -1.275360   -3.256540 H         1 <1>         0.187200 
     41 H           1.946393    0.388736    1.950079 H         1 <1>         0.189900 
     42 H           1.127199   -0.509101    0.669328 H         1 <1>         0.157000 
     43 H           2.433388    0.794793   -1.040330 H         1 <1>         0.160000 
     44 H           3.247274    2.844630    0.049454 H         1 <1>         0.137000 
     45 H           3.925100    1.911064    1.384605 H         1 <1>         0.153300 
     46 H           5.846077    2.172089   -0.156917 H         1 <1>         0.135700 
     47 H           4.815249    1.854055   -1.551538 H         1 <1>         0.136200 
     48 H           5.588865   -0.376663   -1.277556 H         1 <1>         0.137300 
     49 H           5.916157   -0.155639    0.434067 H         1 <1>         0.138600 
     50 H           3.823097   -0.956152    1.021128 H         1 <1>         0.133700 
     51 H           3.479607   -1.321863   -0.665790 H         1 <1>         0.140300 
     52 H          -0.146118    4.309269    2.304168 H         1 <1>         0.353000 
@<TRIPOS>BOND
     1    2   33 1    
     2   14   39 1    
     3    2   32 1    
     4   21   47 1    
     5   15   40 1    
     6    5    6 2    
     7    2    1 1    
     8    3    2 1    
     9    1   29 1    
    10   15   14 ar   
    11   14   13 ar   
    12   16   15 ar   
    13   19   43 1    
    14    1   30 1    
    15    1   31 1    
    16   21   46 1    
    17   20   21 1    
    18   22   21 1    
    19   20   44 1    
    20   13   38 1    
    21   22   48 1    
    22   27   28 2    
    23    3   27 ar   
    24    4    3 ar   
    25    4    5 1    
    26    5    7 1    
    27   12   13 ar   
    28   26   27 ar   
    29   19   20 1    
    30   20   45 1    
    31   17    4 ar   
    32   23   22 1    
    33   22   49 1    
    34    7   16 ar   
    35   16   11 ar   
    36   19   23 1    
    37   18   19 1    
    38    7    8 ar   
    39   23   51 1    
    40   26   52 1    
    41   24   26 ar   
    42   11   12 ar   
    43   12   37 1    
    44   23   50 1    
    45   17   24 ar   
    46   17   18 1    
    47   11   10 ar   
    48   24   25 2    
    49   18   42 1    
    50   18   41 1    
    51    8   34 1    
    52    8    9 ar   
    53   10    9 ar   
    54   10   36 1    
    55    9   35 1    
@<TRIPOS>SUBSTRUCTURE
     1 ****       39 TEMP              0 ****  ****    0 ROOT 
