#	Name:			LJ-2007-EJMC-198-16
#	Creating user name:	Administrator
#	Creation time:		Sun Jul 05 16:45:57 2020

#	Modifying user name:	Administrator
#	Modification time:	Sun Jul 05 16:48:40 2020

@<TRIPOS>MOLECULE
LJ-2007-EJMC-198-16
   49    51     1     0     0
SMALL
MULLIKEN_CHARGES
INVALID_CHARGES
Gaussian 16 #p B3LYP/6-31G* opt
@<TRIPOS>ATOM
      1 C          -1.929156    3.544911   -2.453737 C.3       1 <1>        -0.448100 
      2 C          -2.391838    2.638162   -1.297570 C.3       1 <1>        -0.337400 
      3 C          -1.345590    2.502939   -0.214635 C.ar      1 <1>         0.027400 
      4 C          -0.446279    1.484501   -0.094017 C.ar      1 <1>         0.240900 
      5 C          -0.341321    0.419193   -1.180696 C.2       1 <1>         0.312900 
      6 O           0.703643    0.420887   -1.823543 O.2       1 <1>        -0.447500 
      7 C          -1.448265   -0.520491   -1.539979 C.ar      1 <1>        -0.007000 
      8 C          -1.406834   -0.965395   -2.857533 C.ar      1 <1>        -0.157900 
      9 C          -2.378405   -1.837986   -3.378068 C.ar      1 <1>        -0.136900 
     10 C          -3.392081   -2.291898   -2.564578 C.ar      1 <1>        -0.175000 
     11 C          -3.465769   -1.903217   -1.202596 C.ar      1 <1>         0.129700 
     12 C          -4.488636   -2.418617   -0.361304 C.ar      1 <1>        -0.192200 
     13 C          -4.546358   -2.085444    0.971419 C.ar      1 <1>        -0.131100 
     14 C          -3.577524   -1.212225    1.515063 C.ar      1 <1>        -0.142400 
     15 C          -2.586559   -0.679556    0.718847 C.ar      1 <1>        -0.185800 
     16 C          -2.487109   -0.997697   -0.661297 C.ar      1 <1>         0.097200 
     17 N           0.555196    1.481028    0.889199 N.ar      1 <1>        -0.556400 
     18 C           1.530682    0.389572    1.053508 C.3       1 <1>        -0.214400 
     19 C           1.117978   -0.700667    2.005593 C.2       1 <1>        -0.089900 
     20 C           0.116646   -0.637019    2.888984 C.2       1 <1>        -0.173900 
     21 C          -0.298925   -1.741492    3.780384 C.2       1 <1>         0.626000 
     22 O          -1.312957   -1.710046    4.452569 O.2       1 <1>        -0.497700 
     23 O           0.550818   -2.793870    3.762829 O.3       1 <1>        -0.463700 
     24 C           0.170211   -3.901211    4.593549 C.3       1 <1>        -0.218600 
     25 C           0.704206    2.541321    1.792475 C.ar      1 <1>         0.785100 
     26 O           1.578730    2.573820    2.642428 O.2       1 <1>        -0.512000 
     27 N          -0.230715    3.547761    1.650337 N.ar      1 <1>        -0.703600 
     28 C          -1.264154    3.638589    0.715056 C.ar      1 <1>         0.611100 
     29 O          -2.011417    4.606631    0.710792 O.2       1 <1>        -0.504400 
     30 H          -1.043298    3.133423   -2.950825 H         1 <1>         0.148400 
     31 H          -2.724765    3.643666   -3.200633 H         1 <1>         0.148100 
     32 H          -1.684863    4.545565   -2.085119 H         1 <1>         0.171300 
     33 H          -3.283048    3.078130   -0.838857 H         1 <1>         0.174900 
     34 H          -2.677196    1.660311   -1.689090 H         1 <1>         0.155100 
     35 H          -0.603073   -0.607369   -3.491514 H         1 <1>         0.170100 
     36 H          -2.324243   -2.145752   -4.418112 H         1 <1>         0.144800 
     37 H          -4.150814   -2.966692   -2.953560 H         1 <1>         0.144200 
     38 H          -5.220109   -3.096752   -0.794015 H         1 <1>         0.137300 
     39 H          -5.325026   -2.495453    1.608168 H         1 <1>         0.141800 
     40 H          -3.595375   -0.971361    2.574021 H         1 <1>         0.163300 
     41 H          -1.861404   -0.019164    1.168748 H         1 <1>         0.142000 
     42 H           2.449086    0.852255    1.429050 H         1 <1>         0.219200 
     43 H           1.760126   -0.024655    0.072427 H         1 <1>         0.208900 
     44 H           1.723754   -1.603213    1.955829 H         1 <1>         0.172100 
     45 H          -0.504556    0.247164    2.986522 H         1 <1>         0.159300 
     46 H           0.955439   -4.646693    4.464260 H         1 <1>         0.164400 
     47 H           0.103029   -3.591094    5.639767 H         1 <1>         0.173600 
     48 H          -0.797093   -4.303081    4.280006 H         1 <1>         0.170400 
     49 H          -0.136532    4.321574    2.299072 H         1 <1>         0.356600 
@<TRIPOS>BOND
     1   13   39 1    
     2   14   40 1    
     3   28   29 2    
     4   14   13 ar   
     5   12   13 ar   
     6    2   33 1    
     7   15   14 ar   
     8   12   38 1    
     9   21   22 2    
    10   27   49 1    
    11   11   12 ar   
    12   27   28 ar   
    13    3   28 ar   
    14   15   41 1    
    15   16   15 ar   
    16   25   27 ar   
    17    2   34 1    
    18    3    2 1    
    19    2    1 1    
    20   20   45 1    
    21    1   32 1    
    22    1   31 1    
    23    4    3 ar   
    24   16   11 ar   
    25   11   10 ar   
    26   20   21 1    
    27   21   23 1    
    28    1   30 1    
    29   24   47 1    
    30    7   16 ar   
    31   24   48 1    
    32   25   26 2    
    33   17   25 ar   
    34   19   20 2    
    35   10   37 1    
    36   23   24 1    
    37   24   46 1    
    38   17    4 ar   
    39    4    5 1    
    40   10    9 ar   
    41   18   17 1    
    42    5    7 1    
    43    7    8 ar   
    44   19   18 1    
    45   19   44 1    
    46    5    6 2    
    47    9    8 ar   
    48    9   36 1    
    49   18   42 1    
    50   18   43 1    
    51    8   35 1    
@<TRIPOS>SUBSTRUCTURE
     1 ****       47 TEMP              0 ****  ****    0 ROOT 
