#	Name:			LJ-2006-CPB-1249-14
#	Creating user name:	Administrator
#	Creation time:		Sun Jul 05 16:45:54 2020

#	Modifying user name:	Administrator
#	Modification time:	Sun Jul 05 16:48:40 2020

@<TRIPOS>MOLECULE
LJ-2006-CPB-1249-14
   49    51     1     0     0
SMALL
MULLIKEN_CHARGES
INVALID_CHARGES
Gaussian 16 #p B3LYP/6-31G* opt
@<TRIPOS>ATOM
      1 C          -3.846716    2.351171   -0.734414 C.3       1 <1>        -0.451300 
      2 C          -2.422198    2.565899   -1.274830 C.3       1 <1>        -0.328300 
      3 C          -1.349564    2.499974   -0.211088 C.ar      1 <1>         0.026900 
      4 C          -0.440455    1.494442   -0.086736 C.ar      1 <1>         0.228800 
      5 C          -0.341116    0.383270   -1.134549 C.2       1 <1>         0.306200 
      6 O           0.548239    0.515512   -1.966126 O.2       1 <1>        -0.459000 
      7 C          -1.292927   -0.752727   -1.074557 C.ar      1 <1>         0.060800 
      8 C          -2.065813   -0.887049    0.074949 C.ar      1 <1>        -0.193500 
      9 C          -2.960578   -1.959398    0.251164 C.ar      1 <1>        -0.135700 
     10 C          -3.094537   -2.900061   -0.743320 C.ar      1 <1>        -0.171000 
     11 C          -2.342029   -2.812147   -1.944100 C.ar      1 <1>         0.133100 
     12 C          -2.502245   -3.788328   -2.962832 C.ar      1 <1>        -0.195100 
     13 C          -1.780220   -3.713765   -4.131042 C.ar      1 <1>        -0.125900 
     14 C          -0.867389   -2.652775   -4.319525 C.ar      1 <1>        -0.135300 
     15 C          -0.683352   -1.687957   -3.350255 C.ar      1 <1>        -0.186800 
     16 C          -1.412491   -1.731923   -2.130886 C.ar      1 <1>         0.073800 
     17 N           0.554351    1.485886    0.887137 N.ar      1 <1>        -0.549100 
     18 C           1.522504    0.381727    1.014945 C.3       1 <1>        -0.202100 
     19 C           2.777420    0.616716    0.210450 C.2       1 <1>        -0.056100 
     20 C           3.798764   -0.241721    0.074085 C.2       1 <1>        -0.179100 
     21 C           3.816976   -1.575657    0.702359 C.2       1 <1>         0.618300 
     22 O           2.935177   -2.049212    1.400102 O.2       1 <1>        -0.508500 
     23 O           4.960752   -2.235559    0.405976 O.3       1 <1>        -0.460900 
     24 C           5.077090   -3.547994    0.974858 C.3       1 <1>        -0.217500 
     25 C           0.705875    2.539673    1.794058 C.ar      1 <1>         0.775500 
     26 O           1.584584    2.568361    2.640148 O.2       1 <1>        -0.510500 
     27 N          -0.235870    3.541789    1.653087 N.ar      1 <1>        -0.701000 
     28 C          -1.270250    3.635378    0.711917 C.ar      1 <1>         0.603900 
     29 O          -2.008694    4.611087    0.703110 O.2       1 <1>        -0.509100 
     30 H          -3.963108    1.350060   -0.304944 H         1 <1>         0.139400 
     31 H          -4.078226    3.091990    0.035669 H         1 <1>         0.178000 
     32 H          -4.578893    2.458193   -1.542573 H         1 <1>         0.146300 
     33 H          -2.212505    1.841939   -2.069019 H         1 <1>         0.146400 
     34 H          -2.371218    3.560088   -1.734601 H         1 <1>         0.171100 
     35 H          -1.975895   -0.148739    0.864638 H         1 <1>         0.161100 
     36 H          -3.537751   -2.034592    1.167484 H         1 <1>         0.148100 
     37 H          -3.784632   -3.731924   -0.623456 H         1 <1>         0.146400 
     38 H          -3.210798   -4.596702   -2.799842 H         1 <1>         0.137900 
     39 H          -1.909485   -4.464295   -4.905773 H         1 <1>         0.139100 
     40 H          -0.297600   -2.594069   -5.242963 H         1 <1>         0.141000 
     41 H           0.027782   -0.889745   -3.506062 H         1 <1>         0.185300 
     42 H           1.039679   -0.554702    0.730512 H         1 <1>         0.198000 
     43 H           1.768214    0.292610    2.074644 H         1 <1>         0.225800 
     44 H           2.841573    1.578544   -0.291833 H         1 <1>         0.167300 
     45 H           4.663710    0.026928   -0.523575 H         1 <1>         0.156100 
     46 H           5.037953   -3.499251    2.066533 H         1 <1>         0.171500 
     47 H           6.044228   -3.926234    0.642320 H         1 <1>         0.165500 
     48 H           4.269163   -4.194215    0.620751 H         1 <1>         0.169900 
     49 H          -0.142205    4.318935    2.297724 H         1 <1>         0.354400 
@<TRIPOS>BOND
     1   14   40 1    
     2   15   41 1    
     3   20   45 1    
     4   15   14 ar   
     5   14   13 ar   
     6    5    6 2    
     7    2   34 1    
     8   19   44 1    
     9   16   15 ar   
    10    2   33 1    
    11   13   39 1    
    12   19   20 2    
    13   20   21 1    
    14    3    2 1    
    15    2    1 1    
    16   18   19 1    
    17   13   12 ar   
    18    4    5 1    
    19    5    7 1    
    20    4    3 ar   
    21    3   28 ar   
    22   21   23 1    
    23   23   24 1    
    24   28   29 2    
    25    1   32 1    
    26   17    4 ar   
    27   28   27 ar   
    28    7   16 ar   
    29   16   11 ar   
    30   21   22 2    
    31   24   47 1    
    32    1   31 1    
    33    1   30 1    
    34   17   18 1    
    35   17   25 ar   
    36    7    8 ar   
    37   27   49 1    
    38   27   25 ar   
    39   18   42 1    
    40   18   43 1    
    41   25   26 2    
    42   12   11 ar   
    43   12   38 1    
    44   24   48 1    
    45   24   46 1    
    46   11   10 ar   
    47    8   35 1    
    48    8    9 ar   
    49   10    9 ar   
    50   10   37 1    
    51    9   36 1    
@<TRIPOS>SUBSTRUCTURE
     1 ****       40 TEMP              0 ****  ****    0 ROOT 
