#	Name:			LJ-2006-CPB-1249-20
#	Creating user name:	Administrator
#	Creation time:		Sun Jul 05 16:45:55 2020

#	Modifying user name:	Administrator
#	Modification time:	Sun Jul 05 16:48:40 2020

@<TRIPOS>MOLECULE
LJ-2006-CPB-1249-20
   43    45     1     0     0
SMALL
MULLIKEN_CHARGES
INVALID_CHARGES
Gaussian 16 #p B3LYP/6-31G* opt
@<TRIPOS>ATOM
      1 C          -3.850687    2.250039   -0.650571 C.3       1 <1>        -0.451200 
      2 C          -2.459158    2.543455   -1.239353 C.3       1 <1>        -0.332400 
      3 C          -1.348735    2.500778   -0.214745 C.ar      1 <1>         0.023400 
      4 C          -0.447129    1.492307   -0.090679 C.ar      1 <1>         0.236900 
      5 C          -0.455980    0.311727   -1.068384 C.2       1 <1>         0.323300 
      6 O           0.086909    0.486342   -2.148506 O.2       1 <1>        -0.447500 
      7 C          -1.141287   -0.943546   -0.650250 C.ar      1 <1>         0.050000 
      8 C          -1.813845   -0.942993    0.568145 C.ar      1 <1>        -0.198100 
      9 C          -2.494337   -2.078344    1.047743 C.ar      1 <1>        -0.136900 
     10 C          -2.498198   -3.232488    0.300076 C.ar      1 <1>        -0.173300 
     11 C          -1.827931   -3.298598   -0.949455 C.ar      1 <1>         0.133500 
     12 C          -1.841067   -4.501449   -1.704261 C.ar      1 <1>        -0.195500 
     13 C          -1.195499   -4.581652   -2.915945 C.ar      1 <1>        -0.126200 
     14 C          -0.511028   -3.452054   -3.415810 C.ar      1 <1>        -0.135400 
     15 C          -0.477960   -2.266077   -2.711068 C.ar      1 <1>        -0.191000 
     16 C          -1.133064   -2.145303   -1.454576 C.ar      1 <1>         0.068800 
     17 N           0.552992    1.481930    0.886039 N.ar      1 <1>        -0.555800 
     18 C           1.643164    0.522226    0.842699 C.3       1 <1>         0.090300 
     19 O           2.582802    0.961048   -0.107388 O.3       1 <1>        -0.446600 
     20 C           3.705608    0.101678   -0.187852 C.3       1 <1>        -0.202800 
     21 C           0.709058    2.543014    1.795547 C.ar      1 <1>         0.796600 
     22 O           1.585982    2.576532    2.640271 O.2       1 <1>        -0.508900 
     23 N          -0.240951    3.535578    1.661194 N.ar      1 <1>        -0.704000 
     24 C          -1.265894    3.636362    0.709629 C.ar      1 <1>         0.607000 
     25 O          -2.005345    4.610090    0.704379 O.2       1 <1>        -0.506100 
     26 H          -3.902790    1.236751   -0.236172 H         1 <1>         0.137700 
     27 H          -4.618038    2.335108   -1.428146 H         1 <1>         0.147800 
     28 H          -4.090296    2.964429    0.142187 H         1 <1>         0.173500 
     29 H          -2.468521    3.550135   -1.672261 H         1 <1>         0.172600 
     30 H          -2.242170    1.850066   -2.056856 H         1 <1>         0.157100 
     31 H          -1.826309   -0.039737    1.168202 H         1 <1>         0.160600 
     32 H          -3.010855   -2.033262    2.001630 H         1 <1>         0.147000 
     33 H          -3.019169   -4.117698    0.657147 H         1 <1>         0.145700 
     34 H          -2.373591   -5.359849   -1.302177 H         1 <1>         0.137500 
     35 H          -1.210860   -5.505778   -3.486941 H         1 <1>         0.139100 
     36 H          -0.001898   -3.514858   -4.373874 H         1 <1>         0.141100 
     37 H           0.044029   -1.409571   -3.111698 H         1 <1>         0.189300 
     38 H           2.076359    0.480046    1.846985 H         1 <1>         0.181500 
     39 H           1.241710   -0.465039    0.577724 H         1 <1>         0.143100 
     40 H           4.239659    0.040717    0.772802 H         1 <1>         0.143000 
     41 H           4.371557    0.526630   -0.941409 H         1 <1>         0.172800 
     42 H           3.418008   -0.915642   -0.496900 H         1 <1>         0.137500 
     43 H          -0.150553    4.311745    2.307526 H         1 <1>         0.355100 
@<TRIPOS>BOND
     1   14   36 1    
     2    2   29 1    
     3   15   37 1    
     4    2   30 1    
     5    5    6 2    
     6   15   14 ar   
     7   14   13 ar   
     8    3    2 1    
     9    2    1 1    
    10   20   41 1    
    11   16   15 ar   
    12    1   27 1    
    13    4    5 1    
    14    5    7 1    
    15   13   35 1    
    16    4    3 ar   
    17    3   24 ar   
    18    1   28 1    
    19    1   26 1    
    20   19   20 1    
    21   18   19 1    
    22   13   12 ar   
    23   24   25 2    
    24   20   42 1    
    25   20   40 1    
    26   17    4 ar   
    27   24   23 ar   
    28    7   16 ar   
    29   16   11 ar   
    30    7    8 ar   
    31   17   18 1    
    32   17   21 ar   
    33   23   43 1    
    34   23   21 ar   
    35   18   39 1    
    36   18   38 1    
    37   12   11 ar   
    38   12   34 1    
    39   21   22 2    
    40   11   10 ar   
    41    8   31 1    
    42    8    9 ar   
    43   10    9 ar   
    44   10   33 1    
    45    9   32 1    
@<TRIPOS>SUBSTRUCTURE
     1 ****       36 TEMP              0 ****  ****    0 ROOT 
