#	Name:			MG2003-CJMC-255-1
#	Creating user name:	Administrator
#	Creation time:		Sun Jul 05 16:46:18 2020

#	Modifying user name:	Administrator
#	Modification time:	Sun Jul 05 16:48:40 2020

@<TRIPOS>MOLECULE
MG2003-CJMC-255-1
   45    47     1     0     0
SMALL
MULLIKEN_CHARGES
INVALID_CHARGES
Gaussian 16 #p B3LYP/6-31G* opt
@<TRIPOS>ATOM
      1 C          -2.441161    2.544340   -1.245634 C.3       1 <1>        -0.542900 
      2 C          -1.344369    2.500381   -0.210271 C.ar      1 <1>         0.007500 
      3 C          -0.441302    1.486129   -0.105271 C.ar      1 <1>         0.327000 
      4 C          -0.448162    0.316602   -1.063279 C.3       1 <1>        -0.460400 
      5 C          -1.181659   -0.934898   -0.585269 C.ar      1 <1>         0.111900 
      6 C          -1.946376   -0.935056    0.564029 C.ar      1 <1>        -0.199800 
      7 C          -2.636553   -2.093471    0.996362 C.ar      1 <1>        -0.135400 
      8 C          -2.560138   -3.255749    0.269989 C.ar      1 <1>        -0.187700 
      9 C          -1.792648   -3.308419   -0.924827 C.ar      1 <1>         0.136300 
     10 C          -1.706600   -4.499778   -1.693089 C.ar      1 <1>        -0.193200 
     11 C          -0.968520   -4.545952   -2.853704 C.ar      1 <1>        -0.131500 
     12 C          -0.281522   -3.392607   -3.296571 C.ar      1 <1>        -0.132600 
     13 C          -0.342175   -2.221044   -2.572892 C.ar      1 <1>        -0.198500 
     14 C          -1.092116   -2.136228   -1.367183 C.ar      1 <1>         0.074400 
     15 N           0.543105    1.477448    0.894128 N.ar      1 <1>        -0.561900 
     16 C           1.536606    0.423784    0.979413 C.3       1 <1>         0.083100 
     17 O           2.521600    0.641802   -0.013818 O.3       1 <1>        -0.481800 
     18 C           3.613082   -0.263340    0.094069 C.3       1 <1>        -0.025100 
     19 C           4.626218    0.112100   -0.976189 C.3       1 <1>        -0.048700 
     20 O           5.691608   -0.822557   -0.873864 O.3       1 <1>        -0.620300 
     21 C           0.706706    2.543531    1.794077 C.ar      1 <1>         0.789000 
     22 O           1.579601    2.577637    2.645310 O.2       1 <1>        -0.513400 
     23 N          -0.226066    3.548046    1.645499 N.ar      1 <1>        -0.701700 
     24 C          -1.266655    3.636268    0.711368 C.ar      1 <1>         0.597700 
     25 O          -2.011044    4.607151    0.716794 O.2       1 <1>        -0.510000 
     26 H          -2.049198    2.739814   -2.252556 H         1 <1>         0.162600 
     27 H          -3.124500    3.358516   -0.996513 H         1 <1>         0.197800 
     28 H          -3.010599    1.609895   -1.283173 H         1 <1>         0.163800 
     29 H          -0.902773    0.657191   -1.999609 H         1 <1>         0.185500 
     30 H           0.589470    0.071866   -1.311571 H         1 <1>         0.198000 
     31 H          -2.028725   -0.027195    1.154152 H         1 <1>         0.138000 
     32 H          -3.226146   -2.051559    1.907918 H         1 <1>         0.136900 
     33 H          -3.086107   -4.150070    0.595050 H         1 <1>         0.133700 
     34 H          -2.240786   -5.380625   -1.344704 H         1 <1>         0.134200 
     35 H          -0.912553   -5.464376   -3.431467 H         1 <1>         0.134600 
     36 H           0.298217   -3.430529   -4.214829 H         1 <1>         0.133500 
     37 H           0.190999   -1.349059   -2.936982 H         1 <1>         0.133700 
     38 H           1.973725    0.478282    1.979434 H         1 <1>         0.191300 
     39 H           1.049171   -0.548281    0.841442 H         1 <1>         0.157100 
     40 H           3.283768   -1.303440   -0.055459 H         1 <1>         0.142600 
     41 H           4.079634   -0.195161    1.088039 H         1 <1>         0.150100 
     42 H           4.962997    1.145306   -0.805041 H         1 <1>         0.140700 
     43 H           4.139254    0.075579   -1.963147 H         1 <1>         0.130100 
     44 H           6.374889   -0.567813   -1.510802 H         1 <1>         0.399500 
     45 H          -0.134275    4.323905    2.291534 H         1 <1>         0.354200 
@<TRIPOS>BOND
     1    7   32 1    
     2    8   33 1    
     3    7    8 ar   
     4    6    7 ar   
     5   16   38 1    
     6    9    8 ar   
     7   21   22 2    
     8   18   41 1    
     9    6   31 1    
    10   16   39 1    
    11   10   34 1    
    12    5    6 ar   
    13   15   16 1    
    14   16   17 1    
    15   15   21 ar   
    16   21   23 ar   
    17   18   40 1    
    18    9   10 ar   
    19   14    9 ar   
    20   23   45 1    
    21   17   18 1    
    22   18   19 1    
    23    3   15 ar   
    24   10   11 ar   
    25   23   24 ar   
    26    5   14 ar   
    27    4    5 1    
    28   19   20 1    
    29   20   44 1    
    30   14   13 ar   
    31    3    4 1    
    32    3    2 ar   
    33   24   25 2    
    34   24    2 ar   
    35   11   35 1    
    36   11   12 ar   
    37   19   42 1    
    38   19   43 1    
    39    4   30 1    
    40    4   29 1    
    41    2    1 1    
    42   13   12 ar   
    43   13   37 1    
    44   12   36 1    
    45    1   28 1    
    46    1   27 1    
    47    1   26 1    
@<TRIPOS>SUBSTRUCTURE
     1 ****       41 TEMP              0 ****  ****    0 ROOT 
