#	Name:			MG2003-CJMC-255-15
#	Creating user name:	Administrator
#	Creation time:		Sun Jul 05 16:46:19 2020

#	Modifying user name:	Administrator
#	Modification time:	Sun Jul 05 16:48:40 2020

@<TRIPOS>MOLECULE
MG2003-CJMC-255-15
   57    60     1     0     0
SMALL
MULLIKEN_CHARGES
INVALID_CHARGES
Gaussian 16 #p B3LYP/6-31G* opt
@<TRIPOS>ATOM
      1 C          -4.944040    2.328536   -1.731055 C.3       1 <1>        -0.443200 
      2 C          -3.825813    2.144510   -0.701209 C.3       1 <1>        -0.256400 
      3 C          -2.453944    2.603713   -1.237308 C.3       1 <1>        -0.332000 
      4 C          -1.339489    2.506010   -0.220504 C.ar      1 <1>        -0.011300 
      5 C          -0.448068    1.479697   -0.106094 C.ar      1 <1>         0.327000 
      6 C          -0.439860    0.285651   -1.034860 C.3       1 <1>        -0.463300 
      7 C          -1.100504   -0.985619   -0.505123 C.ar      1 <1>         0.108600 
      8 C          -1.821432   -0.998427    0.672448 C.ar      1 <1>        -0.198100 
      9 C          -2.443130   -2.177644    1.150154 C.ar      1 <1>        -0.136800 
     10 C          -2.342249   -3.349040    0.441495 C.ar      1 <1>        -0.188300 
     11 C          -1.615882   -3.390688   -0.779196 C.ar      1 <1>         0.136600 
     12 C          -1.503698   -4.591797   -1.528738 C.ar      1 <1>        -0.193700 
     13 C          -0.803969   -4.628397   -2.713224 C.ar      1 <1>        -0.131800 
     14 C          -0.183290   -3.455202   -3.199919 C.ar      1 <1>        -0.133900 
     15 C          -0.271008   -2.273461   -2.495916 C.ar      1 <1>        -0.200100 
     16 C          -0.983807   -2.197608   -1.266857 C.ar      1 <1>         0.073700 
     17 N           0.539327    1.478759    0.896940 N.ar      1 <1>        -0.564200 
     18 C           1.550489    0.440345    0.971990 C.3       1 <1>         0.082600 
     19 O           2.513673    0.668313   -0.041391 O.3       1 <1>        -0.473500 
     20 C           3.626221   -0.219694    0.057350 C.3       1 <1>        -0.096800 
     21 C           4.654785    0.152081   -0.982728 C.ar      1 <1>         0.135000 
     22 C           5.016779    1.492215   -1.171886 C.ar      1 <1>        -0.159200 
     23 C           5.991984    1.833022   -2.107745 C.ar      1 <1>        -0.132500 
     24 C           6.623410    0.838866   -2.860097 C.ar      1 <1>        -0.126900 
     25 C           6.268500   -0.497447   -2.675865 C.ar      1 <1>        -0.128900 
     26 C           5.284395   -0.836750   -1.744806 C.ar      1 <1>        -0.183800 
     27 C           0.706236    2.544948    1.794940 C.ar      1 <1>         0.789800 
     28 O           1.583620    2.582424    2.642172 O.2       1 <1>        -0.515100 
     29 N          -0.229086    3.546832    1.652787 N.ar      1 <1>        -0.702200 
     30 C          -1.262330    3.634468    0.713633 C.ar      1 <1>         0.606700 
     31 O          -2.010232    4.603454    0.717759 O.2       1 <1>        -0.512100 
     32 H          -5.044373    3.381410   -2.020952 H         1 <1>         0.149600 
     33 H          -5.909360    1.999525   -1.330315 H         1 <1>         0.144600 
     34 H          -4.747525    1.749471   -2.642198 H         1 <1>         0.138700 
     35 H          -4.056781    2.721110    0.202321 H         1 <1>         0.156400 
     36 H          -3.764939    1.090227   -0.401931 H         1 <1>         0.136500 
     37 H          -2.213869    2.038787   -2.144312 H         1 <1>         0.136300 
     38 H          -2.536054    3.655948   -1.531727 H         1 <1>         0.169000 
     39 H           0.600513    0.079376   -1.307045 H         1 <1>         0.203100 
     40 H          -0.934059    0.574629   -1.966524 H         1 <1>         0.185800 
     41 H          -1.922105   -0.084695    1.250258 H         1 <1>         0.139300 
     42 H          -3.000403   -2.144207    2.082197 H         1 <1>         0.136600 
     43 H          -2.816609   -4.258952    0.800784 H         1 <1>         0.133300 
     44 H          -1.986668   -5.487998   -1.146409 H         1 <1>         0.133800 
     45 H          -0.727801   -5.554433   -3.276294 H         1 <1>         0.134200 
     46 H           0.366634   -3.485577   -4.136645 H         1 <1>         0.134500 
     47 H           0.212206   -1.387175   -2.893323 H         1 <1>         0.138400 
     48 H           1.077505   -0.540326    0.849483 H         1 <1>         0.156600 
     49 H           2.003852    0.509011    1.963995 H         1 <1>         0.190300 
     50 H           3.300648   -1.262944   -0.081787 H         1 <1>         0.135900 
     51 H           4.056347   -0.145721    1.070563 H         1 <1>         0.150400 
     52 H           4.519839    2.262985   -0.590553 H         1 <1>         0.147700 
     53 H           6.261869    2.876240   -2.249433 H         1 <1>         0.133400 
     54 H           7.385267    1.106274   -3.587524 H         1 <1>         0.130800 
     55 H           6.750120   -1.276546   -3.260940 H         1 <1>         0.130400 
     56 H           5.003467   -1.879259   -1.611322 H         1 <1>         0.125200 
     57 H          -0.139428    4.321954    2.299933 H         1 <1>         0.353600 
@<TRIPOS>BOND
     1    9   42 1    
     2   18   49 1    
     3   27   28 2    
     4   10   43 1    
     5   20   51 1    
     6    9   10 ar   
     7    8    9 ar   
     8   11   10 ar   
     9   18   48 1    
    10   17   18 1    
    11   18   19 1    
    12    8   41 1    
    13   17   27 ar   
    14   29   27 ar   
    15   20   50 1    
    16    7    8 ar   
    17   29   57 1    
    18   19   20 1    
    19   20   21 1    
    20   12   44 1    
    21    5   17 ar   
    22   30   29 ar   
    23   11   12 ar   
    24   16   11 ar   
    25   12   13 ar   
    26   26   56 1    
    27    7   16 ar   
    28    6    7 1    
    29   21   26 ar   
    30   21   22 ar   
    31   16   15 ar   
    32   26   25 ar   
    33    5    6 1    
    34    4    5 ar   
    35   22   52 1    
    36   30   31 2    
    37    4   30 ar   
    38   22   23 ar   
    39   13   45 1    
    40   14   13 ar   
    41    6   39 1    
    42    6   40 1    
    43    3    4 1    
    44    2   36 1    
    45    2   35 1    
    46   25   55 1    
    47   25   24 ar   
    48   15   14 ar   
    49   15   47 1    
    50   23   24 ar   
    51   23   53 1    
    52   14   46 1    
    53    2    3 1    
    54    2    1 1    
    55   24   54 1    
    56    3   37 1    
    57    3   38 1    
    58    1   33 1    
    59    1   34 1    
    60    1   32 1    
@<TRIPOS>SUBSTRUCTURE
     1 ****       36 TEMP              0 ****  ****    0 ROOT 
