#	Name:			MG2003-CJMC-255-9
#	Creating user name:	Administrator
#	Creation time:		Sun Jul 05 16:46:20 2020

#	Modifying user name:	Administrator
#	Modification time:	Sun Jul 05 16:48:40 2020

@<TRIPOS>MOLECULE
MG2003-CJMC-255-9
   44    46     1     0     0
SMALL
MULLIKEN_CHARGES
INVALID_CHARGES
Gaussian 16 #p B3LYP/6-31G* opt
@<TRIPOS>ATOM
      1 C           2.383575   -2.532479    1.611254 C.3       1 <1>        -0.464600 
      2 C           1.489687   -1.607473    2.433894 C.3       1 <1>        -0.030700 
      3 O           0.723008   -0.699229    1.641101 O.3       1 <1>        -0.470000 
      4 C           1.464281    0.366325    1.085131 C.3       1 <1>         0.065300 
      5 N           0.573600    1.498089    0.863253 N.ar      1 <1>        -0.570800 
      6 C          -0.453332    1.474441   -0.100704 C.ar      1 <1>         0.344800 
      7 C          -0.542644    0.252560   -1.006800 C.3       1 <1>        -0.461500 
      8 C          -0.463306    0.466466   -2.517596 C.ar      1 <1>         0.134100 
      9 C          -1.462486   -0.083777   -3.298505 C.ar      1 <1>        -0.209600 
     10 C          -1.442123   -0.012402   -4.709928 C.ar      1 <1>        -0.128100 
     11 C          -0.404510    0.620110   -5.349013 C.ar      1 <1>        -0.191500 
     12 C           0.652499    1.201500   -4.600259 C.ar      1 <1>         0.142600 
     13 C           1.735520    1.849641   -5.252557 C.ar      1 <1>        -0.194600 
     14 C           2.768757    2.407135   -4.536034 C.ar      1 <1>        -0.131100 
     15 C           2.757153    2.340001   -3.124169 C.ar      1 <1>        -0.141700 
     16 C           1.720416    1.720773   -2.460973 C.ar      1 <1>        -0.193600 
     17 C           0.634141    1.128888   -3.164132 C.ar      1 <1>         0.078600 
     18 C          -1.360184    2.488229   -0.192273 C.ar      1 <1>         0.007900 
     19 C          -2.508199    2.513026   -1.167964 C.3       1 <1>        -0.532200 
     20 C          -1.262376    3.637215    0.709514 C.ar      1 <1>         0.596800 
     21 O          -2.008783    4.606469    0.720705 O.2       1 <1>        -0.510600 
     22 N          -0.205512    3.563288    1.625903 N.ar      1 <1>        -0.697900 
     23 C           0.702018    2.543760    1.795267 C.ar      1 <1>         0.786900 
     24 O           1.554548    2.565099    2.669969 O.2       1 <1>        -0.519800 
     25 H           2.876277   -3.260235    2.266595 H         1 <1>         0.153200 
     26 H           3.168081   -1.979433    1.082330 H         1 <1>         0.153000 
     27 H           1.791195   -3.082028    0.871852 H         1 <1>         0.160100 
     28 H           2.085025   -1.042095    3.166947 H         1 <1>         0.143700 
     29 H           0.746617   -2.190826    2.986105 H         1 <1>         0.155900 
     30 H           2.236063    0.715845    1.774036 H         1 <1>         0.196500 
     31 H           1.929186    0.078736    0.135523 H         1 <1>         0.146900 
     32 H          -1.511648   -0.215567   -0.796039 H         1 <1>         0.182800 
     33 H           0.191069   -0.497253   -0.708591 H         1 <1>         0.195400 
     34 H          -2.294563   -0.589126   -2.813947 H         1 <1>         0.126600 
     35 H          -2.252269   -0.458779   -5.279767 H         1 <1>         0.134100 
     36 H          -0.375003    0.684240   -6.433935 H         1 <1>         0.133200 
     37 H           1.731112    1.895379   -6.339153 H         1 <1>         0.133000 
     38 H           3.590194    2.899422   -5.049033 H         1 <1>         0.134100 
     39 H           3.570286    2.784476   -2.556651 H         1 <1>         0.134200 
     40 H           1.732475    1.701675   -1.378634 H         1 <1>         0.137700 
     41 H          -2.181213    2.752584   -2.185975 H         1 <1>         0.177700 
     42 H          -3.215270    3.283028   -0.852721 H         1 <1>         0.191800 
     43 H          -3.031211    1.551622   -1.212360 H         1 <1>         0.147500 
     44 H          -0.121862    4.333029    2.280084 H         1 <1>         0.353700 
@<TRIPOS>BOND
     1    9   34 1    
     2   10   35 1    
     3   19   43 1    
     4    7   32 1    
     5    9   10 ar   
     6    8    9 ar   
     7   10   11 ar   
     8   19   42 1    
     9    2   29 1    
    10   19   41 1    
    11   18   19 1    
    12    1   27 1    
    13    7   33 1    
    14    7    8 1    
    15    6    7 1    
    16    8   17 ar   
    17   11   36 1    
    18   12   11 ar   
    19    3    2 1    
    20    4    3 1    
    21    2    1 1    
    22    2   28 1    
    23    6   18 ar   
    24   18   20 ar   
    25    1   25 1    
    26    5    6 ar   
    27    1   26 1    
    28   20   21 2    
    29   20   22 ar   
    30   17   12 ar   
    31   17   16 ar   
    32   12   13 ar   
    33    5    4 1    
    34    5   23 ar   
    35    4   31 1    
    36    4   30 1    
    37   22   23 ar   
    38   22   44 1    
    39   23   24 2    
    40   16   40 1    
    41   16   15 ar   
    42   13   37 1    
    43   13   14 ar   
    44   15   14 ar   
    45   15   39 1    
    46   14   38 1    
@<TRIPOS>SUBSTRUCTURE
     1 ****       43 TEMP              0 ****  ****    0 ROOT 
