#	Name:			MG2003-CJMC-255-16
#	Creating user name:	Administrator
#	Creation time:		Sun Jul 05 16:46:19 2020

#	Modifying user name:	Administrator
#	Modification time:	Sun Jul 05 16:48:40 2020

@<TRIPOS>MOLECULE
MG2003-CJMC-255-16
   57    60     1     0     0
SMALL
MULLIKEN_CHARGES
INVALID_CHARGES
Gaussian 16 #p B3LYP/6-31G* opt
@<TRIPOS>ATOM
      1 C          -3.890474    2.779448   -0.616943 C.3       1 <1>        -0.464400 
      2 C          -2.494836    2.550556   -1.235859 C.3       1 <1>        -0.140000 
      3 C          -2.190352    3.614408   -2.311272 C.3       1 <1>        -0.451600 
      4 C          -1.371930    2.481316   -0.199243 C.ar      1 <1>        -0.023500 
      5 C          -0.444639    1.474327   -0.107523 C.ar      1 <1>         0.350400 
      6 C          -0.384674    0.304361   -1.084087 C.3       1 <1>        -0.465100 
      7 C          -0.562599   -1.138875   -0.597589 C.ar      1 <1>         0.102800 
      8 C           0.373081   -2.066050   -1.023694 C.ar      1 <1>        -0.213800 
      9 C           0.274714   -3.439195   -0.704955 C.ar      1 <1>        -0.130600 
     10 C          -0.779132   -3.894189    0.048364 C.ar      1 <1>        -0.192300 
     11 C          -1.776538   -2.993160    0.504660 C.ar      1 <1>         0.143200 
     12 C          -2.878477   -3.456789    1.272427 C.ar      1 <1>        -0.196000 
     13 C          -3.857925   -2.594263    1.706412 C.ar      1 <1>        -0.131300 
     14 C          -3.771766   -1.220054    1.386618 C.ar      1 <1>        -0.148000 
     15 C          -2.714613   -0.737438    0.646877 C.ar      1 <1>        -0.191000 
     16 C          -1.680193   -1.594568    0.180716 C.ar      1 <1>         0.079000 
     17 N           0.572432    1.503284    0.863974 N.ar      1 <1>        -0.568000 
     18 C           1.743503    0.643835    0.782848 C.3       1 <1>         0.065700 
     19 O           2.611121    1.184957   -0.204123 O.3       1 <1>        -0.470300 
     20 C           3.969166    0.755439   -0.080686 C.3       1 <1>        -0.123200 
     21 C           4.198739   -0.671520   -0.536142 C.ar      1 <1>         0.145200 
     22 C           4.522237   -1.681761    0.375635 C.ar      1 <1>        -0.181400 
     23 C           4.717640   -2.996643   -0.054819 C.ar      1 <1>        -0.124900 
     24 C           4.588982   -3.314557   -1.406981 C.ar      1 <1>        -0.130900 
     25 C           4.266771   -2.312602   -2.328017 C.ar      1 <1>        -0.131600 
     26 C           4.073997   -1.001755   -1.893814 C.ar      1 <1>        -0.176100 
     27 C           0.697939    2.544960    1.798711 C.ar      1 <1>         0.793500 
     28 O           1.586579    2.598612    2.633225 O.2       1 <1>        -0.517300 
     29 N          -0.277982    3.507705    1.696308 N.ar      1 <1>        -0.694700 
     30 C          -1.266162    3.626726    0.714695 C.ar      1 <1>         0.603700 
     31 O          -1.956260    4.639661    0.691488 O.2       1 <1>        -0.514000 
     32 H          -3.958166    3.762003   -0.148105 H         1 <1>         0.191000 
     33 H          -4.651650    2.711487   -1.403102 H         1 <1>         0.137700 
     34 H          -4.127111    2.020974    0.138112 H         1 <1>         0.140500 
     35 H          -2.549406    1.584295   -1.744750 H         1 <1>         0.129900 
     36 H          -2.981644    3.622837   -3.070502 H         1 <1>         0.139800 
     37 H          -1.238792    3.408447   -2.815082 H         1 <1>         0.136600 
     38 H          -2.135295    4.609680   -1.862423 H         1 <1>         0.180600 
     39 H           0.593631    0.362765   -1.574425 H         1 <1>         0.195900 
     40 H          -1.116433    0.490723   -1.871420 H         1 <1>         0.186700 
     41 H           1.220431   -1.732273   -1.616873 H         1 <1>         0.144600 
     42 H           1.043617   -4.121478   -1.055736 H         1 <1>         0.134800 
     43 H          -0.868123   -4.947342    0.303940 H         1 <1>         0.131400 
     44 H          -2.932962   -4.516775    1.509402 H         1 <1>         0.131200 
     45 H          -4.695326   -2.964011    2.291794 H         1 <1>         0.133000 
     46 H          -4.545298   -0.537385    1.728110 H         1 <1>         0.134300 
     47 H          -2.666111    0.319477    0.425153 H         1 <1>         0.148400 
     48 H           2.217864    0.664924    1.766204 H         1 <1>         0.184200 
     49 H           1.441733   -0.373565    0.539457 H         1 <1>         0.174000 
     50 H           4.307048    0.885042    0.958173 H         1 <1>         0.148700 
     51 H           4.533633    1.452185   -0.708494 H         1 <1>         0.161100 
     52 H           4.626377   -1.437843    1.430743 H         1 <1>         0.134400 
     53 H           4.970763   -3.769535    0.665883 H         1 <1>         0.136400 
     54 H           4.746244   -4.335278   -1.745197 H         1 <1>         0.134900 
     55 H           4.175139   -2.552973   -3.384046 H         1 <1>         0.136000 
     56 H           3.828386   -0.221636   -2.611037 H         1 <1>         0.137500 
     57 H          -0.190807    4.288774    2.336878 H         1 <1>         0.353100 
@<TRIPOS>BOND
     1   27   28 2    
     2   29   57 1    
     3   22   52 1    
     4   18   48 1    
     5   13   45 1    
     6   29   27 ar   
     7   17   27 ar   
     8   30   29 ar   
     9   20   50 1    
    10   23   53 1    
    11   12   13 ar   
    12   14   13 ar   
    13   12   44 1    
    14   14   46 1    
    15   11   12 ar   
    16   22   23 ar   
    17   21   22 ar   
    18   17   18 1    
    19   18   49 1    
    20   18   19 1    
    21   15   14 ar   
    22    5   17 ar   
    23   23   24 ar   
    24   30   31 2    
    25    4   30 ar   
    26   11   10 ar   
    27   16   11 ar   
    28   10   43 1    
    29   19   20 1    
    30   20   21 1    
    31   20   51 1    
    32   15   47 1    
    33   16   15 ar   
    34    9   10 ar   
    35    7   16 ar   
    36   21   26 ar   
    37    4    5 ar   
    38    5    6 1    
    39    1   34 1    
    40    2    4 1    
    41    9   42 1    
    42    8    9 ar   
    43    7    8 ar   
    44    6    7 1    
    45   24   54 1    
    46   24   25 ar   
    47    1   32 1    
    48    8   41 1    
    49    6   39 1    
    50    6   40 1    
    51    1    2 1    
    52    1   33 1    
    53   26   25 ar   
    54   26   56 1    
    55    2   35 1    
    56    2    3 1    
    57   25   55 1    
    58    3   38 1    
    59    3   37 1    
    60    3   36 1    
@<TRIPOS>SUBSTRUCTURE
     1 ****       34 TEMP              0 ****  ****    0 ROOT 
