#	Name:			MG2003-CJMC-255-2
#	Creating user name:	Administrator
#	Creation time:		Sun Jul 05 16:46:19 2020

#	Modifying user name:	Administrator
#	Modification time:	Sun Jul 05 16:48:40 2020

@<TRIPOS>MOLECULE
MG2003-CJMC-255-2
   48    50     1     0     0
SMALL
MULLIKEN_CHARGES
INVALID_CHARGES
Gaussian 16 #p B3LYP/6-31G* opt
@<TRIPOS>ATOM
      1 C          -2.148718    3.462020   -2.423710 C.3       1 <1>        -0.449500 
      2 C          -2.484275    2.580675   -1.206449 C.3       1 <1>        -0.328400 
      3 C          -1.358801    2.491923   -0.199588 C.ar      1 <1>        -0.002300 
      4 C          -0.453217    1.475491   -0.098139 C.ar      1 <1>         0.315100 
      5 C          -0.476293    0.260602   -1.000634 C.3       1 <1>        -0.469500 
      6 C           0.469521    0.298785   -2.199820 C.ar      1 <1>         0.112500 
      7 C           1.214937    1.418800   -2.510125 C.ar      1 <1>        -0.200200 
      8 C           2.079738    1.448757   -3.631391 C.ar      1 <1>        -0.136700 
      9 C           2.193811    0.350351   -4.446415 C.ar      1 <1>        -0.187600 
     10 C           1.446778   -0.827539   -4.174864 C.ar      1 <1>         0.136900 
     11 C           1.548518   -1.972482   -5.008792 C.ar      1 <1>        -0.193300 
     12 C           0.821809   -3.111074   -4.745056 C.ar      1 <1>        -0.131100 
     13 C          -0.042116   -3.150813   -3.626792 C.ar      1 <1>        -0.132500 
     14 C          -0.162873   -2.057252   -2.796814 C.ar      1 <1>        -0.194100 
     15 C           0.571846   -0.863488   -3.037581 C.ar      1 <1>         0.075800 
     16 N           0.568942    1.499047    0.868614 N.ar      1 <1>        -0.556400 
     17 C           1.532027    0.386889    1.002941 C.3       1 <1>         0.052200 
     18 O           0.978527   -0.773954    1.562847 O.3       1 <1>        -0.452200 
     19 C           0.650778   -0.731047    2.954574 C.3       1 <1>        -0.039800 
     20 C           1.843826   -0.617998    3.891211 C.3       1 <1>        -0.070900 
     21 O           2.687134   -1.742675    3.685639 O.3       1 <1>        -0.610800 
     22 C           0.704258    2.541702    1.791306 C.ar      1 <1>         0.779000 
     23 O           1.561335    2.568504    2.665384 O.2       1 <1>        -0.528300 
     24 N          -0.213485    3.557190    1.636269 N.ar      1 <1>        -0.698800 
     25 C          -1.262189    3.635700    0.712016 C.ar      1 <1>         0.602600 
     26 O          -2.006866    4.607035    0.715773 O.2       1 <1>        -0.511300 
     27 H          -1.894465    4.476200   -2.100816 H         1 <1>         0.168500 
     28 H          -3.011589    3.527922   -3.096317 H         1 <1>         0.145500 
     29 H          -1.305427    3.054013   -2.990825 H         1 <1>         0.149500 
     30 H          -2.784753    1.585662   -1.547873 H         1 <1>         0.140000 
     31 H          -3.347764    3.015148   -0.691976 H         1 <1>         0.171400 
     32 H          -0.264413   -0.624196   -0.391715 H         1 <1>         0.210800 
     33 H          -1.498220    0.128367   -1.366906 H         1 <1>         0.182900 
     34 H           1.137549    2.305643   -1.888439 H         1 <1>         0.136700 
     35 H           2.649303    2.350411   -3.838959 H         1 <1>         0.135600 
     36 H           2.854168    0.365034   -5.310074 H         1 <1>         0.132900 
     37 H           2.216170   -1.931471   -5.866225 H         1 <1>         0.133200 
     38 H           0.909826   -3.979525   -5.391935 H         1 <1>         0.133900 
     39 H          -0.613734   -4.051375   -3.419577 H         1 <1>         0.134100 
     40 H          -0.830953   -2.114884   -1.944080 H         1 <1>         0.135800 
     41 H           2.363120    0.782216    1.585338 H         1 <1>         0.195500 
     42 H           1.879465    0.104701    0.010438 H         1 <1>         0.181400 
     43 H           0.135431   -1.677759    3.138803 H         1 <1>         0.162300 
     44 H          -0.048057    0.090828    3.165623 H         1 <1>         0.137500 
     45 H           1.441604   -0.588302    4.918738 H         1 <1>         0.122900 
     46 H           2.371341    0.331124    3.725355 H         1 <1>         0.161300 
     47 H           3.475669   -1.625032    4.235804 H         1 <1>         0.394900 
     48 H          -0.128679    4.326832    2.290761 H         1 <1>         0.353100 
@<TRIPOS>BOND
     1   13   39 1    
     2   14   40 1    
     3    2   30 1    
     4    2   31 1    
     5   19   43 1    
     6    5   33 1    
     7   14   13 ar   
     8   13   12 ar   
     9    3    2 1    
    10    2    1 1    
    11   15   14 ar   
    12   19   44 1    
    13    5   32 1    
    14    1   28 1    
    15   18   19 1    
    16   19   20 1    
    17   12   38 1    
    18    4    5 1    
    19    5    6 1    
    20   12   11 ar   
    21    4    3 ar   
    22    3   25 ar   
    23   20   45 1    
    24    1   29 1    
    25    1   27 1    
    26   17   18 1    
    27   16    4 ar   
    28   25   26 2    
    29   25   24 ar   
    30    6   15 ar   
    31   15   10 ar   
    32   20   21 1    
    33   20   46 1    
    34   21   47 1    
    35    6    7 ar   
    36   16   17 1    
    37   16   22 ar   
    38   11   10 ar   
    39   11   37 1    
    40   24   22 ar   
    41   24   48 1    
    42   17   42 1    
    43   17   41 1    
    44   22   23 2    
    45   10    9 ar   
    46    7   34 1    
    47    7    8 ar   
    48    9    8 ar   
    49    9   36 1    
    50    8   35 1    
@<TRIPOS>SUBSTRUCTURE
     1 ****       39 TEMP              0 ****  ****    0 ROOT 
