#	Name:			MG2003-CJMC-255-7
#	Creating user name:	Administrator
#	Creation time:		Sun Jul 05 16:46:20 2020

#	Modifying user name:	Administrator
#	Modification time:	Sun Jul 05 16:48:40 2020

@<TRIPOS>MOLECULE
MG2003-CJMC-255-7
   47    49     1     0     0
SMALL
MULLIKEN_CHARGES
INVALID_CHARGES
Gaussian 16 #p B3LYP/6-31G* opt
@<TRIPOS>ATOM
      1 C          -5.033076    2.168373   -1.468529 C.3       1 <1>        -0.442500 
      2 C          -3.848186    2.079501   -0.502270 C.3       1 <1>        -0.254600 
      3 C          -2.524108    2.531362   -1.154119 C.3       1 <1>        -0.340200 
      4 C          -1.354915    2.493554   -0.198586 C.ar      1 <1>         0.001200 
      5 C          -0.456825    1.472894   -0.103069 C.ar      1 <1>         0.327100 
      6 C          -0.541142    0.242637   -1.001201 C.3       1 <1>        -0.458100 
      7 C          -0.328898    0.395644   -2.509223 C.ar      1 <1>         0.128800 
      8 C          -1.247206   -0.227363   -3.336143 C.ar      1 <1>        -0.208300 
      9 C          -1.113376   -0.238184   -4.742658 C.ar      1 <1>        -0.127800 
     10 C          -0.041955    0.385083   -5.332623 C.ar      1 <1>        -0.191300 
     11 C           0.933623    1.041267   -4.537127 C.ar      1 <1>         0.142900 
     12 C           2.048809    1.681817   -5.141194 C.ar      1 <1>        -0.194500 
     13 C           3.005354    2.314663   -4.382494 C.ar      1 <1>        -0.131100 
     14 C           2.879130    2.335441   -2.975043 C.ar      1 <1>        -0.142800 
     15 C           1.808601    1.725839   -2.358095 C.ar      1 <1>        -0.194400 
     16 C           0.799719    1.054680   -3.104596 C.ar      1 <1>         0.076600 
     17 N           0.568095    1.494739    0.867931 N.ar      1 <1>        -0.573900 
     18 C           1.456317    0.367106    1.091577 C.3       1 <1>         0.071600 
     19 O           0.717014   -0.689427    1.669233 O.3       1 <1>        -0.457500 
     20 C           1.547017   -1.774476    2.050337 C.3       1 <1>        -0.206800 
     21 C           0.702526    2.544358    1.796556 C.ar      1 <1>         0.788800 
     22 O           1.557833    2.568062    2.667555 O.2       1 <1>        -0.516200 
     23 N          -0.204749    3.564729    1.628092 N.ar      1 <1>        -0.700000 
     24 C          -1.260260    3.636069    0.712027 C.ar      1 <1>         0.608300 
     25 O          -2.011728    4.602186    0.721129 O.2       1 <1>        -0.513000 
     26 H          -4.877144    1.536894   -2.352369 H         1 <1>         0.136800 
     27 H          -5.963170    1.845275   -0.987349 H         1 <1>         0.143400 
     28 H          -5.178436    3.197379   -1.818450 H         1 <1>         0.150900 
     29 H          -4.038769    2.706808    0.376090 H         1 <1>         0.160000 
     30 H          -3.744597    1.048502   -0.135321 H         1 <1>         0.125100 
     31 H          -2.644391    3.566427   -1.493147 H         1 <1>         0.167200 
     32 H          -2.323687    1.925945   -2.041125 H         1 <1>         0.149700 
     33 H           0.120455   -0.537945   -0.623651 H         1 <1>         0.196800 
     34 H          -1.546909   -0.167506   -0.861628 H         1 <1>         0.184500 
     35 H          -2.102028   -0.730862   -2.890542 H         1 <1>         0.129100 
     36 H          -1.863304   -0.740361   -5.347474 H         1 <1>         0.134600 
     37 H           0.076303    0.386152   -6.413425 H         1 <1>         0.133500 
     38 H           2.130977    1.660331   -6.225411 H         1 <1>         0.133200 
     39 H           3.852578    2.800040   -4.858958 H         1 <1>         0.134500 
     40 H           3.629478    2.841431   -2.373595 H         1 <1>         0.135000 
     41 H           1.732646    1.778804   -1.280251 H         1 <1>         0.141100 
     42 H           2.239676    0.717913    1.767518 H         1 <1>         0.198100 
     43 H           1.911932    0.051372    0.143316 H         1 <1>         0.142100 
     44 H           2.071552   -2.211683    1.186088 H         1 <1>         0.137500 
     45 H           2.294926   -1.466036    2.795716 H         1 <1>         0.150000 
     46 H           0.893729   -2.531069    2.489576 H         1 <1>         0.171000 
     47 H          -0.121153    4.333647    2.283451 H         1 <1>         0.353600 
@<TRIPOS>BOND
     1   13   39 1    
     2   14   40 1    
     3   23   47 1    
     4   24   25 2    
     5   14   13 ar   
     6   12   13 ar   
     7   15   14 ar   
     8   24   23 ar   
     9   21   23 ar   
    10    4   24 ar   
    11   12   38 1    
    12    3   31 1    
    13   11   12 ar   
    14   21   22 2    
    15   17   21 ar   
    16   15   41 1    
    17   16   15 ar   
    18    4    3 1    
    19    5    4 ar   
    20    3   32 1    
    21    3    2 1    
    22   16   11 ar   
    23   11   10 ar   
    24    1   28 1    
    25    7   16 ar   
    26    5   17 ar   
    27   17   18 1    
    28    2   29 1    
    29    6    5 1    
    30   18   42 1    
    31   10   37 1    
    32   10    9 ar   
    33    2    1 1    
    34    2   30 1    
    35    1   26 1    
    36    1   27 1    
    37   18   43 1    
    38   18   19 1    
    39    7    6 1    
    40    7    8 ar   
    41    6   33 1    
    42    6   34 1    
    43    9    8 ar   
    44    9   36 1    
    45    8   35 1    
    46   19   20 1    
    47   20   45 1    
    48   20   44 1    
    49   20   46 1    
@<TRIPOS>SUBSTRUCTURE
     1 ****       39 TEMP              0 ****  ****    0 ROOT 
