#	Name:			MG2003-CJMC-255-3
#	Creating user name:	Administrator
#	Creation time:		Sun Jul 05 16:46:19 2020

#	Modifying user name:	Administrator
#	Modification time:	Sun Jul 05 16:48:40 2020

@<TRIPOS>MOLECULE
MG2003-CJMC-255-3
   51    53     1     0     0
SMALL
MULLIKEN_CHARGES
INVALID_CHARGES
Gaussian 16 #p B3LYP/6-31G* opt
@<TRIPOS>ATOM
      1 C          -4.323899    1.314319   -0.010294 C.3       1 <1>        -0.444200 
      2 C          -3.899787    2.607140   -0.710396 C.3       1 <1>        -0.260600 
      3 C          -2.450775    2.609625   -1.251422 C.3       1 <1>        -0.331400 
      4 C          -1.359940    2.491830   -0.205547 C.ar      1 <1>         0.007000 
      5 C          -0.440099    1.484598   -0.113447 C.ar      1 <1>         0.308200 
      6 C          -0.374525    0.323422   -1.084919 C.3       1 <1>        -0.472900 
      7 C          -1.006016   -0.991301   -0.634440 C.ar      1 <1>         0.115200 
      8 C          -1.633728   -1.124512    0.587546 C.ar      1 <1>        -0.199300 
      9 C          -2.220571   -2.348087    0.993058 C.ar      1 <1>        -0.135900 
     10 C          -2.179005   -3.442193    0.165379 C.ar      1 <1>        -0.187800 
     11 C          -1.545326   -3.360451   -1.104062 C.ar      1 <1>         0.136300 
     12 C          -1.492582   -4.481511   -1.974084 C.ar      1 <1>        -0.193200 
     13 C          -0.877067   -4.400005   -3.202350 C.ar      1 <1>        -0.131200 
     14 C          -0.283667   -3.184290   -3.612349 C.ar      1 <1>        -0.132600 
     15 C          -0.317223   -2.077548   -2.791567 C.ar      1 <1>        -0.195700 
     16 C          -0.945632   -2.123446   -1.516464 C.ar      1 <1>         0.075200 
     17 N           0.553771    1.489713    0.885194 N.ar      1 <1>        -0.550300 
     18 C           1.562382    0.417127    0.985352 C.3       1 <1>         0.050700 
     19 O           2.580061    0.501571    0.017990 O.3       1 <1>        -0.464600 
     20 C           3.512079    1.578157    0.185033 C.3       1 <1>        -0.059200 
     21 C           4.533591    1.324720    1.298872 C.3       1 <1>        -0.055400 
     22 O           5.349954    2.472596    1.490226 O.3       1 <1>        -0.615100 
     23 C           0.697329    2.539628    1.798230 C.ar      1 <1>         0.781300 
     24 O           1.593166    2.594717    2.632536 O.2       1 <1>        -0.537500 
     25 N          -0.257547    3.522704    1.681648 N.ar      1 <1>        -0.696400 
     26 C          -1.268668    3.628137    0.717717 C.ar      1 <1>         0.596800 
     27 O          -1.978035    4.625263    0.695303 O.2       1 <1>        -0.505800 
     28 H          -4.199504    0.439708   -0.660310 H         1 <1>         0.144300 
     29 H          -5.377954    1.362863    0.286362 H         1 <1>         0.144200 
     30 H          -3.735583    1.136118    0.896728 H         1 <1>         0.139600 
     31 H          -4.562241    2.788841   -1.567248 H         1 <1>         0.132600 
     32 H          -4.022678    3.459035   -0.035723 H         1 <1>         0.174100 
     33 H          -2.299201    3.560073   -1.779165 H         1 <1>         0.162300 
     34 H          -2.357371    1.815217   -1.996987 H         1 <1>         0.138300 
     35 H           0.679009    0.155316   -1.335522 H         1 <1>         0.209600 
     36 H          -0.847845    0.637266   -2.018482 H         1 <1>         0.184400 
     37 H          -1.689936   -0.272647    1.258263 H         1 <1>         0.136600 
     38 H          -2.705576   -2.409067    1.963209 H         1 <1>         0.136200 
     39 H          -2.628758   -4.384811    0.467263 H         1 <1>         0.133900 
     40 H          -1.951170   -5.412238   -1.648438 H         1 <1>         0.134100 
     41 H          -0.844376   -5.266034   -3.857450 H         1 <1>         0.134800 
     42 H           0.203741   -3.122833   -4.581532 H         1 <1>         0.134600 
     43 H           0.149182   -1.157835   -3.128823 H         1 <1>         0.135200 
     44 H           1.071979   -0.540862    0.826220 H         1 <1>         0.182300 
     45 H           1.947039    0.471713    2.003144 H         1 <1>         0.192000 
     46 H           2.985422    2.521071    0.379024 H         1 <1>         0.136900 
     47 H           4.025775    1.673768   -0.775233 H         1 <1>         0.159700 
     48 H           4.027532    1.037382    2.230085 H         1 <1>         0.144500 
     49 H           5.202388    0.506983    1.014144 H         1 <1>         0.154800 
     50 H           4.808145    3.131472    1.952997 H         1 <1>         0.399400 
     51 H          -0.161791    4.305502    2.319036 H         1 <1>         0.353900 
@<TRIPOS>BOND
     1   14   42 1    
     2    3   33 1    
     3   15   43 1    
     4    3   34 1    
     5   15   14 ar   
     6   14   13 ar   
     7   20   47 1    
     8    6   36 1    
     9    2   31 1    
    10    3    2 1    
    11    4    3 1    
    12   16   15 ar   
    13    6   35 1    
    14   13   41 1    
    15   20   46 1    
    16   12   13 ar   
    17    5    6 1    
    18    6    7 1    
    19   19   20 1    
    20   20   21 1    
    21    2   32 1    
    22    2    1 1    
    23    5    4 ar   
    24    4   26 ar   
    25   26   27 2    
    26   18   19 1    
    27   17    5 ar   
    28   26   25 ar   
    29   22   50 1    
    30   21   22 1    
    31    7   16 ar   
    32   16   11 ar   
    33   21   49 1    
    34   21   48 1    
    35    1   28 1    
    36    7    8 ar   
    37   11   12 ar   
    38   12   40 1    
    39   17   18 1    
    40   17   23 ar   
    41    1   29 1    
    42    1   30 1    
    43   25   51 1    
    44   25   23 ar   
    45   18   44 1    
    46   18   45 1    
    47   11   10 ar   
    48   23   24 2    
    49    8   37 1    
    50    8    9 ar   
    51   10    9 ar   
    52   10   39 1    
    53    9   38 1    
@<TRIPOS>SUBSTRUCTURE
     1 ****       42 TEMP              0 ****  ****    0 ROOT 
