#	Name:			MG2003-CJMC-255-5
#	Creating user name:	Administrator
#	Creation time:		Sun Jul 05 16:46:20 2020

#	Modifying user name:	Administrator
#	Modification time:	Sun Jul 05 16:48:40 2020

@<TRIPOS>MOLECULE
MG2003-CJMC-255-5
   41    43     1     0     0
SMALL
MULLIKEN_CHARGES
INVALID_CHARGES
Gaussian 16 #p B3LYP/6-31G* opt
@<TRIPOS>ATOM
      1 C           3.458633   -0.604793    0.456149 C.3       1 <1>        -0.206700 
      2 O           2.464376    0.370779    0.186114 O.3       1 <1>        -0.451100 
      3 C           1.415081    0.347876    1.133952 C.3       1 <1>         0.077100 
      4 N           0.532201    1.474986    0.903577 N.ar      1 <1>        -0.575200 
      5 C          -0.436806    1.486633   -0.124524 C.ar      1 <1>         0.345000 
      6 C          -0.401176    0.294492   -1.081622 C.3       1 <1>        -0.473700 
      7 C          -0.615391    0.566150   -2.564775 C.ar      1 <1>         0.131600 
      8 C          -1.666040   -0.049105   -3.216082 C.ar      1 <1>        -0.210800 
      9 C          -1.899012    0.135292   -4.598479 C.ar      1 <1>        -0.130300 
     10 C          -1.068886    0.947726   -5.331841 C.ar      1 <1>        -0.190400 
     11 C           0.041855    1.585699   -4.717720 C.ar      1 <1>         0.141500 
     12 C           0.921943    2.410359   -5.468493 C.ar      1 <1>        -0.196900 
     13 C           2.013418    3.004716   -4.878538 C.ar      1 <1>        -0.129100 
     14 C           2.276626    2.787990   -3.506187 C.ar      1 <1>        -0.144700 
     15 C           1.440123    2.000122   -2.745442 C.ar      1 <1>        -0.201600 
     16 C           0.291370    1.384250   -3.317095 C.ar      1 <1>         0.074800 
     17 C          -1.350697    2.494534   -0.207762 C.ar      1 <1>         0.003300 
     18 C          -2.486151    2.565950   -1.197721 C.3       1 <1>        -0.528100 
     19 C          -1.262636    3.632525    0.714808 C.ar      1 <1>         0.598100 
     20 O          -2.018317    4.594492    0.733998 O.2       1 <1>        -0.508600 
     21 N          -0.195706    3.572028    1.617881 N.ar      1 <1>        -0.698300 
     22 C           0.706364    2.549154    1.793276 C.ar      1 <1>         0.786800 
     23 O           1.565574    2.572240    2.660379 O.2       1 <1>        -0.516900 
     24 H           4.218709   -0.502027   -0.320686 H         1 <1>         0.174200 
     25 H           3.047729   -1.625713    0.422828 H         1 <1>         0.137500 
     26 H           3.921082   -0.441855    1.440604 H         1 <1>         0.152100 
     27 H           1.807434    0.457113    2.147768 H         1 <1>         0.195200 
     28 H           0.845906   -0.588932    1.061805 H         1 <1>         0.144600 
     29 H          -1.160753   -0.427875   -0.753696 H         1 <1>         0.173200 
     30 H           0.565854   -0.202008   -0.982442 H         1 <1>         0.200900 
     31 H          -2.345401   -0.682209   -2.649556 H         1 <1>         0.123400 
     32 H          -2.742109   -0.361879   -5.070172 H         1 <1>         0.132100 
     33 H          -1.243633    1.107606   -6.393042 H         1 <1>         0.131800 
     34 H           0.716910    2.559099   -6.526115 H         1 <1>         0.130800 
     35 H           2.678712    3.632709   -5.464937 H         1 <1>         0.131700 
     36 H           3.149469    3.244094   -3.047062 H         1 <1>         0.133900 
     37 H           1.682911    1.829324   -1.702852 H         1 <1>         0.169100 
     38 H          -3.217263    3.286566   -0.824940 H         1 <1>         0.189300 
     39 H          -2.155251    2.910009   -2.183960 H         1 <1>         0.180300 
     40 H          -2.977819    1.599821   -1.334212 H         1 <1>         0.150000 
     41 H          -0.101553    4.351912    2.258467 H         1 <1>         0.353900 
@<TRIPOS>BOND
     1    8   31 1    
     2    6   29 1    
     3    9   32 1    
     4    3   28 1    
     5    8    9 ar   
     6    7    8 ar   
     7    1   25 1    
     8    9   10 ar   
     9    6   30 1    
    10    6    7 1    
    11    5    6 1    
    12   18   40 1    
    13    7   16 ar   
    14    3   27 1    
    15    4    3 1    
    16    3    2 1    
    17    1   26 1    
    18    2    1 1    
    19    1   24 1    
    20    5    4 ar   
    21   17    5 ar   
    22   10   33 1    
    23   10   11 ar   
    24   18   38 1    
    25   18   17 1    
    26   18   39 1    
    27    4   22 ar   
    28   17   19 ar   
    29   16   11 ar   
    30   16   15 ar   
    31   11   12 ar   
    32   22   23 2    
    33   22   21 ar   
    34   19   21 ar   
    35   19   20 2    
    36   15   37 1    
    37   21   41 1    
    38   15   14 ar   
    39   12   34 1    
    40   12   13 ar   
    41   14   13 ar   
    42   14   36 1    
    43   13   35 1    
@<TRIPOS>SUBSTRUCTURE
     1 ****       40 TEMP              0 ****  ****    0 ROOT 
