#	Name:			MG2003-CJMC-255-12
#	Creating user name:	Administrator
#	Creation time:		Sun Jul 05 16:46:19 2020

#	Modifying user name:	Administrator
#	Modification time:	Sun Jul 05 16:48:40 2020

@<TRIPOS>MOLECULE
MG2003-CJMC-255-12
   50    52     1     0     0
SMALL
MULLIKEN_CHARGES
INVALID_CHARGES
Gaussian 16 #p B3LYP/6-31G* opt
@<TRIPOS>ATOM
      1 C           3.455411   -0.382479   -1.470736 C.3       1 <1>        -0.469400 
      2 C           3.137045    0.981332   -0.861709 C.3       1 <1>        -0.039300 
      3 O           2.913339    0.924125    0.546971 O.3       1 <1>        -0.442500 
      4 C           1.655117    0.489491    0.982070 C.3       1 <1>         0.075800 
      5 N           0.598514    1.516901    0.842006 N.ar      1 <1>        -0.565200 
      6 C          -0.445141    1.477187   -0.100128 C.ar      1 <1>         0.309900 
      7 C          -0.467202    0.273307   -1.021346 C.3       1 <1>        -0.474600 
      8 C          -1.078569   -1.001020   -0.445350 C.ar      1 <1>         0.115600 
      9 C          -1.725707   -1.008892    0.773758 C.ar      1 <1>        -0.196500 
     10 C          -2.297327   -2.191294    1.302749 C.ar      1 <1>        -0.135800 
     11 C          -2.218162   -3.370297    0.604121 C.ar      1 <1>        -0.186400 
     12 C          -1.569497   -3.416332   -0.659369 C.ar      1 <1>         0.136600 
     13 C          -1.482984   -4.625372   -1.399223 C.ar      1 <1>        -0.192500 
     14 C          -0.861350   -4.665823   -2.626467 C.ar      1 <1>        -0.131500 
     15 C          -0.298965   -3.487890   -3.168754 C.ar      1 <1>        -0.132700 
     16 C          -0.363488   -2.298208   -2.475079 C.ar      1 <1>        -0.200600 
     17 C          -0.992336   -2.219034   -1.201241 C.ar      1 <1>         0.075800 
     18 C          -1.391257    2.464952   -0.170178 C.ar      1 <1>        -0.002600 
     19 C          -2.589843    2.444975   -1.115917 C.3       1 <1>        -0.143600 
     20 C          -2.493597    3.547054   -2.190338 C.3       1 <1>        -0.450800 
     21 C          -3.929722    2.519697   -0.353368 C.3       1 <1>        -0.456100 
     22 C          -1.265760    3.633121    0.711088 C.ar      1 <1>         0.602400 
     23 O          -1.986774    4.624681    0.707526 O.2       1 <1>        -0.513900 
     24 N          -0.216959    3.558061    1.630893 N.ar      1 <1>        -0.699400 
     25 C           0.706972    2.547210    1.790990 C.ar      1 <1>         0.790200 
     26 O           1.540381    2.554479    2.679437 O.2       1 <1>        -0.505200 
     27 H           2.615928   -1.083392   -1.393473 H         1 <1>         0.154800 
     28 H           4.315477   -0.830004   -0.962814 H         1 <1>         0.168000 
     29 H           3.699547   -0.273396   -2.534084 H         1 <1>         0.148200 
     30 H           3.994764    1.650683   -0.979322 H         1 <1>         0.159700 
     31 H           2.287415    1.460038   -1.370549 H         1 <1>         0.132000 
     32 H           1.319499   -0.422400    0.487466 H         1 <1>         0.158300 
     33 H           1.769861    0.303280    2.048081 H         1 <1>         0.194800 
     34 H          -1.002320    0.547369   -1.933760 H         1 <1>         0.191700 
     35 H           0.552545    0.064858   -1.356607 H         1 <1>         0.172900 
     36 H          -1.805950   -0.089292    1.345402 H         1 <1>         0.141200 
     37 H          -2.796568   -2.154855    2.266866 H         1 <1>         0.138700 
     38 H          -2.651697   -4.283485    1.004292 H         1 <1>         0.135300 
     39 H          -1.922551   -5.524891   -0.974898 H         1 <1>         0.135800 
     40 H          -0.803679   -5.598118   -3.181226 H         1 <1>         0.136000 
     41 H           0.185591   -3.520458   -4.140706 H         1 <1>         0.134800 
     42 H           0.067624   -1.407271   -2.919686 H         1 <1>         0.131400 
     43 H          -2.597702    1.482797   -1.635229 H         1 <1>         0.130100 
     44 H          -2.503203    4.537636   -1.729452 H         1 <1>         0.185000 
     45 H          -1.573259    3.448133   -2.778366 H         1 <1>         0.131000 
     46 H          -3.343600    3.477406   -2.879647 H         1 <1>         0.139000 
     47 H          -4.762270    2.420686   -1.060058 H         1 <1>         0.138400 
     48 H          -4.031767    3.471132    0.172061 H         1 <1>         0.185900 
     49 H          -4.011885    1.705651    0.376208 H         1 <1>         0.136900 
     50 H          -0.136433    4.330569    2.282733 H         1 <1>         0.352700 
@<TRIPOS>BOND
     1   20   45 1    
     2   20   46 1    
     3   15   41 1    
     4   20   44 1    
     5   19   20 1    
     6    1   29 1    
     7   16   42 1    
     8    2   31 1    
     9   16   15 ar   
    10   15   14 ar   
    11    2   30 1    
    12    7   34 1    
    13    2    1 1    
    14    1   27 1    
    15    1   28 1    
    16   19   43 1    
    17   17   16 ar   
    18    3    2 1    
    19   18   19 1    
    20   19   21 1    
    21    7   35 1    
    22   14   40 1    
    23   21   47 1    
    24   13   14 ar   
    25    6    7 1    
    26    7    8 1    
    27    6   18 ar   
    28   18   22 ar   
    29   21   48 1    
    30   21   49 1    
    31    5    6 ar   
    32   22   23 2    
    33    8   17 ar   
    34   17   12 ar   
    35   22   24 ar   
    36    4    3 1    
    37    8    9 ar   
    38   12   13 ar   
    39   13   39 1    
    40    5    4 1    
    41    5   25 ar   
    42    4   32 1    
    43   24   25 ar   
    44   24   50 1    
    45    4   33 1    
    46   12   11 ar   
    47   25   26 2    
    48    9   36 1    
    49    9   10 ar   
    50   11   10 ar   
    51   11   38 1    
    52   10   37 1    
@<TRIPOS>SUBSTRUCTURE
     1 ****       41 TEMP              0 ****  ****    0 ROOT 
