#	Name:			MG2003-CJMC-255-14
#	Creating user name:	Administrator
#	Creation time:		Sun Jul 05 16:46:19 2020

#	Modifying user name:	Administrator
#	Modification time:	Sun Jul 05 16:48:40 2020

@<TRIPOS>MOLECULE
MG2003-CJMC-255-14
   54    57     1     0     0
SMALL
MULLIKEN_CHARGES
INVALID_CHARGES
Gaussian 16 #p B3LYP/6-31G* opt
@<TRIPOS>ATOM
      1 C          -3.821934    2.079315   -0.651660 C.3       1 <1>        -0.445200 
      2 C          -2.472231    2.556175   -1.216987 C.3       1 <1>        -0.333300 
      3 C          -1.347739    2.498950   -0.207344 C.ar      1 <1>        -0.009200 
      4 C          -0.463355    1.469390   -0.086530 C.ar      1 <1>         0.328500 
      5 C          -0.540502    0.227837   -0.948523 C.3       1 <1>        -0.468500 
      6 C           0.372982    0.202923   -2.171612 C.ar      1 <1>         0.109900 
      7 C           1.036224    1.333690   -2.604861 C.ar      1 <1>        -0.198200 
      8 C           1.870099    1.312991   -3.748980 C.ar      1 <1>        -0.135300 
      9 C           2.036212    0.152226   -4.463033 C.ar      1 <1>        -0.188200 
     10 C           1.370239   -1.038600   -4.065711 C.ar      1 <1>         0.136400 
     11 C           1.524290   -2.246910   -4.796008 C.ar      1 <1>        -0.193800 
     12 C           0.871848   -3.396976   -4.413878 C.ar      1 <1>        -0.131900 
     13 C           0.031970   -3.384254   -3.276910 C.ar      1 <1>        -0.134000 
     14 C          -0.136814   -2.228923   -2.544214 C.ar      1 <1>        -0.200800 
     15 C           0.523418   -1.022007   -2.906590 C.ar      1 <1>         0.073400 
     16 N           0.572293    1.502609    0.862482 N.ar      1 <1>        -0.562600 
     17 C           1.500682    0.398858    1.019317 C.3       1 <1>         0.083100 
     18 O           0.855879   -0.643935    1.728056 O.3       1 <1>        -0.473000 
     19 C           1.746920   -1.708848    2.057240 C.3       1 <1>        -0.097300 
     20 C           1.018992   -2.724098    2.904157 C.ar      1 <1>         0.135000 
     21 C           1.159500   -4.092161    2.651739 C.ar      1 <1>        -0.184000 
     22 C           0.522069   -5.033541    3.462869 C.ar      1 <1>        -0.129000 
     23 C          -0.272241   -4.611778    4.529159 C.ar      1 <1>        -0.126800 
     24 C          -0.423902   -3.245674    4.781698 C.ar      1 <1>        -0.132500 
     25 C           0.220690   -2.307354    3.977401 C.ar      1 <1>        -0.159400 
     26 C           0.704201    2.542312    1.796974 C.ar      1 <1>         0.789300 
     27 O           1.567705    2.567673    2.658681 O.2       1 <1>        -0.514900 
     28 N          -0.222243    3.551889    1.644811 N.ar      1 <1>        -0.702600 
     29 C          -1.262087    3.636958    0.710631 C.ar      1 <1>         0.605300 
     30 O          -2.008797    4.606810    0.711930 O.2       1 <1>        -0.512200 
     31 H          -4.610911    2.171854   -1.406601 H         1 <1>         0.146800 
     32 H          -3.777817    1.030852   -0.333231 H         1 <1>         0.140200 
     33 H          -4.106956    2.685921    0.213299 H         1 <1>         0.171400 
     34 H          -2.577154    3.600701   -1.528146 H         1 <1>         0.173200 
     35 H          -2.212519    1.985653   -2.114192 H         1 <1>         0.144900 
     36 H          -0.336356   -0.636120   -0.308827 H         1 <1>         0.203600 
     37 H          -1.578053    0.107876   -1.275712 H         1 <1>         0.188900 
     38 H           0.916423    2.266327   -2.061575 H         1 <1>         0.137300 
     39 H           2.375457    2.224707   -4.054885 H         1 <1>         0.136500 
     40 H           2.674914    0.127173   -5.342518 H         1 <1>         0.133300 
     41 H           2.170311   -2.244841   -5.670756 H         1 <1>         0.133700 
     42 H           0.998225   -4.313597   -4.983402 H         1 <1>         0.134100 
     43 H          -0.485374   -4.292285   -2.979099 H         1 <1>         0.134400 
     44 H          -0.791169   -2.245927   -1.678952 H         1 <1>         0.138800 
     45 H           1.828785    0.056659    0.031041 H         1 <1>         0.156500 
     46 H           2.357734    0.780123    1.580375 H         1 <1>         0.189800 
     47 H           2.611859   -1.297361    2.604642 H         1 <1>         0.150500 
     48 H           2.136875   -2.182270    1.142168 H         1 <1>         0.136200 
     49 H           1.770163   -4.424862    1.815027 H         1 <1>         0.125300 
     50 H           0.640531   -6.093847    3.255517 H         1 <1>         0.130400 
     51 H          -0.773549   -5.342051    5.158843 H         1 <1>         0.130900 
     52 H          -1.044174   -2.911005    5.609059 H         1 <1>         0.133500 
     53 H           0.099666   -1.245075    4.167285 H         1 <1>         0.148000 
     54 H          -0.143163    4.317847    2.304278 H         1 <1>         0.353600 
@<TRIPOS>BOND
     1   17   46 1    
     2   26   27 2    
     3   19   47 1    
     4    8   39 1    
     5    9   40 1    
     6   17   45 1    
     7    8    9 ar   
     8    7    8 ar   
     9   16   17 1    
    10   17   18 1    
    11   19   48 1    
    12   16   26 ar   
    13   26   28 ar   
    14   10    9 ar   
    15   18   19 1    
    16   19   20 1    
    17    7   38 1    
    18   28   54 1    
    19    6    7 ar   
    20    4   16 ar   
    21   11   41 1    
    22   28   29 ar   
    23   21   49 1    
    24   10   11 ar   
    25   15   10 ar   
    26   20   21 ar   
    27   20   25 ar   
    28   11   12 ar   
    29   21   22 ar   
    30   25   53 1    
    31    6   15 ar   
    32    5    6 1    
    33   25   24 ar   
    34    4    5 1    
    35    4    3 ar   
    36   15   14 ar   
    37   29   30 2    
    38   29    3 ar   
    39   22   50 1    
    40   22   23 ar   
    41   12   42 1    
    42   12   13 ar   
    43    5   36 1    
    44    5   37 1    
    45    3    2 1    
    46   24   23 ar   
    47   24   52 1    
    48   14   13 ar   
    49   14   44 1    
    50   23   51 1    
    51   13   43 1    
    52    2   34 1    
    53    2   35 1    
    54    2    1 1    
    55    1   33 1    
    56    1   32 1    
    57    1   31 1    
@<TRIPOS>SUBSTRUCTURE
     1 ****       47 TEMP              0 ****  ****    0 ROOT 
