#	Name:			MG2003-CJMC-255-6
#	Creating user name:	Administrator
#	Creation time:		Sun Jul 05 16:46:20 2020

#	Modifying user name:	Administrator
#	Modification time:	Sun Jul 05 16:48:40 2020

@<TRIPOS>MOLECULE
MG2003-CJMC-255-6
   44    46     1     0     0
SMALL
MULLIKEN_CHARGES
INVALID_CHARGES
Gaussian 16 #p B3LYP/6-31G* opt
@<TRIPOS>ATOM
      1 C          -1.965930    3.537968   -2.447683 C.3       1 <1>        -0.447700 
      2 C          -2.400352    2.627138   -1.283890 C.3       1 <1>        -0.337100 
      3 C          -1.339673    2.505170   -0.214030 C.ar      1 <1>         0.004900 
      4 C          -0.453294    1.475638   -0.106831 C.ar      1 <1>         0.326300 
      5 C          -0.468102    0.298738   -1.077684 C.3       1 <1>        -0.457500 
      6 C          -1.679921   -0.635435   -1.107970 C.ar      1 <1>         0.128300 
      7 C          -2.199359   -0.946728   -2.352335 C.ar      1 <1>        -0.207800 
      8 C          -3.258325   -1.866765   -2.521322 C.ar      1 <1>        -0.127800 
      9 C          -3.807235   -2.486504   -1.426369 C.ar      1 <1>        -0.191300 
     10 C          -3.316919   -2.208526   -0.123489 C.ar      1 <1>         0.142900 
     11 C          -3.875788   -2.852101    1.013255 C.ar      1 <1>        -0.194500 
     12 C          -3.405524   -2.597779    2.280261 C.ar      1 <1>        -0.131100 
     13 C          -2.349303   -1.676280    2.461190 C.ar      1 <1>        -0.142700 
     14 C          -1.786852   -1.033476    1.380246 C.ar      1 <1>        -0.194400 
     15 C          -2.239080   -1.271567    0.051952 C.ar      1 <1>         0.076600 
     16 N           0.548843    1.480031    0.887772 N.ar      1 <1>        -0.573200 
     17 C           1.595078    0.473940    0.946757 C.3       1 <1>         0.071500 
     18 O           2.463723    0.653216   -0.153170 O.3       1 <1>        -0.457500 
     19 C           3.592929   -0.202200   -0.085580 C.3       1 <1>        -0.206800 
     20 C           0.704141    2.545630    1.794943 C.ar      1 <1>         0.788600 
     21 O           1.584858    2.588700    2.639355 O.2       1 <1>        -0.516200 
     22 N          -0.241420    3.536587    1.666450 N.ar      1 <1>        -0.699500 
     23 C          -1.262747    3.634154    0.714673 C.ar      1 <1>         0.606700 
     24 O          -2.000730    4.610681    0.709301 O.2       1 <1>        -0.512000 
     25 H          -2.767891    3.619828   -3.190267 H         1 <1>         0.145000 
     26 H          -1.738228    4.543914   -2.082753 H         1 <1>         0.172100 
     27 H          -1.074577    3.148188   -2.954118 H         1 <1>         0.136300 
     28 H          -3.292287    3.060109   -0.819169 H         1 <1>         0.171100 
     29 H          -2.683059    1.643728   -1.663458 H         1 <1>         0.152400 
     30 H          -0.372810    0.729585   -2.080085 H         1 <1>         0.184200 
     31 H           0.438570   -0.294766   -0.954817 H         1 <1>         0.196800 
     32 H          -1.777783   -0.470162   -3.234455 H         1 <1>         0.129100 
     33 H          -3.631286   -2.075275   -3.520141 H         1 <1>         0.134700 
     34 H          -4.622329   -3.197210   -1.538631 H         1 <1>         0.133600 
     35 H          -4.689985   -3.556299    0.858935 H         1 <1>         0.133200 
     36 H          -3.843114   -3.097733    3.139761 H         1 <1>         0.134500 
     37 H          -1.980850   -1.467870    3.462037 H         1 <1>         0.135000 
     38 H          -0.993939   -0.319057    1.556997 H         1 <1>         0.141000 
     39 H           1.153302   -0.531641    0.934945 H         1 <1>         0.142000 
     40 H           2.118796    0.625168    1.893603 H         1 <1>         0.198200 
     41 H           4.203916    0.013373   -0.964432 H         1 <1>         0.171000 
     42 H           4.185976   -0.014358    0.821706 H         1 <1>         0.150000 
     43 H           3.302936   -1.264738   -0.102312 H         1 <1>         0.137500 
     44 H          -0.151370    4.310456    2.315124 H         1 <1>         0.353600 
@<TRIPOS>BOND
     1   12   36 1    
     2   13   37 1    
     3   13   12 ar   
     4   11   12 ar   
     5   22   44 1    
     6   14   13 ar   
     7   23   24 2    
     8   23   22 ar   
     9   20   22 ar   
    10   11   35 1    
    11   10   11 ar   
    12   20   21 2    
    13    3   23 ar   
    14   14   38 1    
    15   15   14 ar   
    16   16   20 ar   
    17    2   28 1    
    18   15   10 ar   
    19   10    9 ar   
    20    3    2 1    
    21    4    3 ar   
    22    6   15 ar   
    23    4   16 ar   
    24   16   17 1    
    25   17   40 1    
    26    2   29 1    
    27    2    1 1    
    28    5    4 1    
    29   17   39 1    
    30   17   18 1    
    31    9   34 1    
    32    9    8 ar   
    33    1   26 1    
    34    6    5 1    
    35    6    7 ar   
    36    1   25 1    
    37    1   27 1    
    38    5   31 1    
    39    5   30 1    
    40    8    7 ar   
    41    8   33 1    
    42   18   19 1    
    43   19   42 1    
    44    7   32 1    
    45   19   43 1    
    46   19   41 1    
@<TRIPOS>SUBSTRUCTURE
     1 ****       36 TEMP              0 ****  ****    0 ROOT 
