#	Name:			MG2003-CJMC-255-8
#	Creating user name:	Administrator
#	Creation time:		Sun Jul 05 16:46:20 2020

#	Modifying user name:	Administrator
#	Modification time:	Sun Jul 05 16:48:40 2020

@<TRIPOS>MOLECULE
MG2003-CJMC-255-8
   47    49     1     0     0
SMALL
MULLIKEN_CHARGES
INVALID_CHARGES
Gaussian 16 #p B3LYP/6-31G* opt
@<TRIPOS>ATOM
      1 C          -0.271315   -1.307802    1.930747 C.3       1 <1>        -0.216300 
      2 O           0.811197   -0.475199    2.308905 O.3       1 <1>        -0.436700 
      3 C           1.370679    0.302358    1.287505 C.3       1 <1>         0.073500 
      4 N           0.539446    1.463954    0.904735 N.ar      1 <1>        -0.583400 
      5 C          -0.437157    1.482453   -0.118823 C.ar      1 <1>         0.312400 
      6 C          -0.432178    0.322297   -1.118161 C.3       1 <1>        -0.466400 
      7 C          -0.129101    0.626097   -2.587354 C.ar      1 <1>         0.139500 
      8 C          -1.027777    0.171916   -3.535350 C.ar      1 <1>        -0.206500 
      9 C          -0.808957    0.336730   -4.921839 C.ar      1 <1>        -0.129800 
     10 C           0.329057    0.963450   -5.365370 C.ar      1 <1>        -0.190000 
     11 C           1.295188    1.438228   -4.439582 C.ar      1 <1>         0.142100 
     12 C           2.485089    2.069897   -4.890557 C.ar      1 <1>        -0.194300 
     13 C           3.436151    2.515191   -4.002360 C.ar      1 <1>        -0.130900 
     14 C           3.231512    2.344614   -2.614287 C.ar      1 <1>        -0.141900 
     15 C           2.086089    1.740855   -2.143727 C.ar      1 <1>        -0.196500 
     16 C           1.076570    1.268677   -3.028158 C.ar      1 <1>         0.075600 
     17 C          -1.345966    2.500508   -0.217789 C.ar      1 <1>         0.009700 
     18 C          -2.465164    2.544545   -1.252516 C.3       1 <1>        -0.141900 
     19 C          -3.856772    2.534178   -0.584458 C.3       1 <1>        -0.454300 
     20 C          -2.315870    3.730690   -2.226481 C.3       1 <1>        -0.454500 
     21 C          -1.266154    3.631428    0.713569 C.ar      1 <1>         0.605400 
     22 O          -2.011830    4.603543    0.741038 O.2       1 <1>        -0.511500 
     23 N          -0.206567    3.563968    1.621606 N.ar      1 <1>        -0.696800 
     24 C           0.699612    2.545111    1.796346 C.ar      1 <1>         0.793700 
     25 O           1.568594    2.585625    2.650952 O.2       1 <1>        -0.509700 
     26 H           0.014683   -2.010158    1.132697 H         1 <1>         0.134900 
     27 H          -1.145375   -0.728114    1.601815 H         1 <1>         0.146900 
     28 H          -0.546642   -1.878912    2.820186 H         1 <1>         0.174800 
     29 H           1.600832   -0.294189    0.401937 H         1 <1>         0.148400 
     30 H           2.287371    0.713459    1.701361 H         1 <1>         0.207900 
     31 H          -1.420900   -0.146032   -1.080663 H         1 <1>         0.179300 
     32 H           0.256312   -0.456393   -0.791406 H         1 <1>         0.170800 
     33 H          -1.935743   -0.329363   -3.207832 H         1 <1>         0.128000 
     34 H          -1.547739   -0.033047   -5.627237 H         1 <1>         0.135500 
     35 H           0.510418    1.100956   -6.428421 H         1 <1>         0.134900 
     36 H           2.630949    2.191968   -5.961259 H         1 <1>         0.134100 
     37 H           4.341756    2.995368   -4.362244 H         1 <1>         0.135700 
     38 H           3.982429    2.695133   -1.911380 H         1 <1>         0.137400 
     39 H           1.954269    1.635325   -1.074586 H         1 <1>         0.144400 
     40 H          -2.399234    1.637810   -1.855112 H         1 <1>         0.127700 
     41 H          -4.636522    2.483361   -1.353810 H         1 <1>         0.137200 
     42 H          -4.015201    3.436775    0.009199 H         1 <1>         0.186500 
     43 H          -3.975258    1.663229    0.071819 H         1 <1>         0.128700 
     44 H          -1.351493    3.693271   -2.744650 H         1 <1>         0.147200 
     45 H          -2.391722    4.682686   -1.696044 H         1 <1>         0.180100 
     46 H          -3.107313    3.692371   -2.984548 H         1 <1>         0.135400 
     47 H          -0.112629    4.345885    2.260337 H         1 <1>         0.353700 
@<TRIPOS>BOND
     1   13   37 1    
     2   23   47 1    
     3   14   38 1    
     4   21   22 2    
     5   14   13 ar   
     6   12   13 ar   
     7   20   45 1    
     8   15   14 ar   
     9   21   23 ar   
    10   24   23 ar   
    11   24   25 2    
    12   17   21 ar   
    13   20   44 1    
    14   12   36 1    
    15   11   12 ar   
    16    4   24 ar   
    17   20   46 1    
    18   18   20 1    
    19   15   39 1    
    20   16   15 ar   
    21   17   18 1    
    22    5   17 ar   
    23   19   42 1    
    24   16   11 ar   
    25   11   10 ar   
    26    5    4 ar   
    27    4    3 1    
    28    3   30 1    
    29    7   16 ar   
    30   18   19 1    
    31   18   40 1    
    32    6    5 1    
    33   10   35 1    
    34   19   41 1    
    35   19   43 1    
    36   10    9 ar   
    37    3   29 1    
    38    3    2 1    
    39    7    6 1    
    40    7    8 ar   
    41    6   32 1    
    42    6   31 1    
    43    2    1 1    
    44    9    8 ar   
    45    9   34 1    
    46    8   33 1    
    47    1   27 1    
    48    1   26 1    
    49    1   28 1    
@<TRIPOS>SUBSTRUCTURE
     1 ****       37 TEMP              0 ****  ****    0 ROOT 
