#	Name:			MG2003-CJMC-255-4
#	Creating user name:	Administrator
#	Creation time:		Sun Jul 05 16:46:19 2020

#	Modifying user name:	Administrator
#	Modification time:	Sun Jul 05 16:48:40 2020

@<TRIPOS>MOLECULE
MG2003-CJMC-255-4
   51    53     1     0     0
SMALL
MULLIKEN_CHARGES
INVALID_CHARGES
Gaussian 16 #p B3LYP/6-31G* opt
@<TRIPOS>ATOM
      1 C          -2.144182    2.537862   -2.687236 C.3       1 <1>        -0.450000 
      2 C          -2.527067    2.587753   -1.196121 C.3       1 <1>        -0.159100 
      3 C          -3.682098    1.623514   -0.854469 C.3       1 <1>        -0.446100 
      4 C          -1.357486    2.492763   -0.215023 C.ar      1 <1>        -0.014700 
      5 C          -0.456515    1.473086   -0.095396 C.ar      1 <1>         0.325000 
      6 C          -0.480803    0.239209   -0.971583 C.3       1 <1>        -0.461800 
      7 C           0.581315    0.165941   -2.066397 C.ar      1 <1>         0.102700 
      8 C           1.327771    1.269321   -2.429633 C.ar      1 <1>        -0.192000 
      9 C           2.301601    1.203446   -3.454768 C.ar      1 <1>        -0.135100 
     10 C           2.526177    0.024414   -4.121539 C.ar      1 <1>        -0.189300 
     11 C           1.780585   -1.139912   -3.793962 C.ar      1 <1>         0.136200 
     12 C           1.994703   -2.367132   -4.476157 C.ar      1 <1>        -0.194200 
     13 C           1.266787   -3.492348   -4.163051 C.ar      1 <1>        -0.132800 
     14 C           0.285600   -3.434270   -3.146891 C.ar      1 <1>        -0.134800 
     15 C           0.054657   -2.259569   -2.463476 C.ar      1 <1>        -0.201500 
     16 C           0.790489   -1.076937   -2.755727 C.ar      1 <1>         0.072400 
     17 N           0.566406    1.496452    0.871484 N.ar      1 <1>        -0.559900 
     18 C           1.451150    0.362092    1.089040 C.3       1 <1>         0.069800 
     19 O           0.722227   -0.640926    1.789606 O.3       1 <1>        -0.469800 
     20 C           1.348657   -1.915398    1.831205 C.3       1 <1>        -0.050200 
     21 C           2.599662   -1.982957    2.705077 C.3       1 <1>        -0.053300 
     22 O           3.724285   -1.310457    2.149741 O.3       1 <1>        -0.603200 
     23 C           0.705030    2.543287    1.796864 C.ar      1 <1>         0.788300 
     24 O           1.560008    2.572886    2.665427 O.2       1 <1>        -0.509600 
     25 N          -0.210696    3.559312    1.628368 N.ar      1 <1>        -0.699600 
     26 C          -1.260773    3.633373    0.711029 C.ar      1 <1>         0.594300 
     27 O          -2.005997    4.605432    0.728881 O.2       1 <1>        -0.511800 
     28 H          -1.359419    3.267113   -2.915805 H         1 <1>         0.149300 
     29 H          -3.020067    2.789467   -3.297026 H         1 <1>         0.144800 
     30 H          -1.789490    1.556353   -3.016510 H         1 <1>         0.146000 
     31 H          -2.920173    3.593347   -1.019364 H         1 <1>         0.182500 
     32 H          -4.551319    1.843272   -1.485641 H         1 <1>         0.146400 
     33 H          -3.988207    1.738954    0.190713 H         1 <1>         0.156400 
     34 H          -3.422959    0.569918   -1.011480 H         1 <1>         0.138700 
     35 H          -0.395309   -0.629771   -0.311812 H         1 <1>         0.196300 
     36 H          -1.467280    0.163516   -1.431281 H         1 <1>         0.186600 
     37 H           1.167872    2.214695   -1.920332 H         1 <1>         0.140900 
     38 H           2.868631    2.095130   -3.707128 H         1 <1>         0.138000 
     39 H           3.273025   -0.035522   -4.909340 H         1 <1>         0.133800 
     40 H           2.748750   -2.399595   -5.259121 H         1 <1>         0.134600 
     41 H           1.440481   -4.423441   -4.695344 H         1 <1>         0.134700 
     42 H          -0.293090   -4.321821   -2.905662 H         1 <1>         0.133700 
     43 H          -0.711349   -2.240191   -1.695333 H         1 <1>         0.134700 
     44 H           2.296982    0.720203    1.671514 H         1 <1>         0.219700 
     45 H           1.805358   -0.022147    0.127275 H         1 <1>         0.146000 
     46 H           0.589550   -2.593000    2.238244 H         1 <1>         0.151800 
     47 H           1.591187   -2.258379    0.808353 H         1 <1>         0.119900 
     48 H           2.829134   -3.041560    2.912014 H         1 <1>         0.126300 
     49 H           2.397540   -1.489844    3.660528 H         1 <1>         0.175200 
     50 H           4.001088   -1.796546    1.357138 H         1 <1>         0.390600 
     51 H          -0.131542    4.328602    2.283706 H         1 <1>         0.353300 
@<TRIPOS>BOND
     1    9   38 1    
     2   10   39 1    
     3    9   10 ar   
     4    8    9 ar   
     5   11   10 ar   
     6    8   37 1    
     7    7    8 ar   
     8   12   40 1    
     9   23   24 2    
    10   25   51 1    
    11    1   28 1    
    12   11   12 ar   
    13   16   11 ar   
    14   18   44 1    
    15   22   50 1    
    16   23   25 ar   
    17   17   23 ar   
    18   25   26 ar   
    19   21   22 1    
    20   12   13 ar   
    21   18   45 1    
    22    7   16 ar   
    23    6    7 1    
    24   18   17 1    
    25   17    5 ar   
    26   26   27 2    
    27    4   26 ar   
    28   19   18 1    
    29   16   15 ar   
    30    1   30 1    
    31    1   29 1    
    32    2    1 1    
    33    5    4 ar   
    34    5    6 1    
    35    4    2 1    
    36    2   31 1    
    37    6   35 1    
    38    6   36 1    
    39   13   41 1    
    40   13   14 ar   
    41   21   49 1    
    42   21   48 1    
    43   20   21 1    
    44    2    3 1    
    45   19   20 1    
    46   20   47 1    
    47   15   14 ar   
    48   15   43 1    
    49   20   46 1    
    50   14   42 1    
    51    3   32 1    
    52    3   34 1    
    53    3   33 1    
@<TRIPOS>SUBSTRUCTURE
     1 ****       24 TEMP              0 ****  ****    0 ROOT 
