#	Name:			MG2003-CJMC-255-10
#	Creating user name:	Administrator
#	Creation time:		Sun Jul 05 16:46:18 2020

#	Modifying user name:	Administrator
#	Modification time:	Sun Jul 05 16:48:40 2020

@<TRIPOS>MOLECULE
MG2003-CJMC-255-10
   47    49     1     0     0
SMALL
MULLIKEN_CHARGES
INVALID_CHARGES
Gaussian 16 #p B3LYP/6-31G* opt
@<TRIPOS>ATOM
      1 C           0.885144   -3.000784    2.209766 C.3       1 <1>        -0.458300 
      2 C           1.708833   -1.850578    1.656985 C.3       1 <1>        -0.015800 
      3 O           0.851509   -0.723739    1.500236 O.3       1 <1>        -0.465200 
      4 C           1.526027    0.409413    1.010130 C.3       1 <1>         0.085600 
      5 N           0.571126    1.496292    0.863876 N.ar      1 <1>        -0.568200 
      6 C          -0.454307    1.474573   -0.098155 C.ar      1 <1>         0.321200 
      7 C          -0.519887    0.287215   -1.039423 C.3       1 <1>        -0.449600 
      8 C          -1.517305   -0.813967   -0.685748 C.ar      1 <1>         0.142800 
      9 C          -2.283263   -0.773522    0.459823 C.ar      1 <1>        -0.178600 
     10 C          -3.200983   -1.804190    0.774114 C.ar      1 <1>        -0.139200 
     11 C          -3.349676   -2.881088   -0.064716 C.ar      1 <1>        -0.190400 
     12 C          -2.584858   -2.971831   -1.258609 C.ar      1 <1>         0.134100 
     13 C          -2.723854   -4.076131   -2.140873 C.ar      1 <1>        -0.193400 
     14 C          -1.982166   -4.162253   -3.296856 C.ar      1 <1>        -0.133000 
     15 C          -1.063337   -3.137637   -3.619584 C.ar      1 <1>        -0.133400 
     16 C          -0.904484   -2.052346   -2.784854 C.ar      1 <1>        -0.199200 
     17 C          -1.653514   -1.927800   -1.581287 C.ar      1 <1>         0.069900 
     18 C          -1.355358    2.493925   -0.195976 C.ar      1 <1>         0.000400 
     19 C          -2.471098    2.557950   -1.214655 C.3       1 <1>        -0.332600 
     20 C          -2.113310    3.408633   -2.446988 C.3       1 <1>        -0.445900 
     21 C          -1.262895    3.636759    0.712146 C.ar      1 <1>         0.604400 
     22 O          -2.001439    4.613130    0.706634 O.2       1 <1>        -0.512800 
     23 N          -0.227985    3.546180    1.650179 N.ar      1 <1>        -0.699700 
     24 C           0.702041    2.540564    1.797076 C.ar      1 <1>         0.786000 
     25 O           1.568794    2.575167    2.655855 O.2       1 <1>        -0.514500 
     26 H           0.460448   -2.733832    3.182559 H         1 <1>         0.163200 
     27 H           1.513231   -3.889280    2.336060 H         1 <1>         0.146000 
     28 H           0.063339   -3.245895    1.530256 H         1 <1>         0.173300 
     29 H           2.537767   -1.598436    2.338160 H         1 <1>         0.133000 
     30 H           2.154165   -2.121545    0.684585 H         1 <1>         0.124000 
     31 H           2.000792    0.195768    0.041017 H         1 <1>         0.135600 
     32 H           2.290148    0.759508    1.708645 H         1 <1>         0.195300 
     33 H           0.470023   -0.162595   -1.150414 H         1 <1>         0.173000 
     34 H          -0.767960    0.680249   -2.031415 H         1 <1>         0.185200 
     35 H          -2.180138    0.060982    1.144886 H         1 <1>         0.137400 
     36 H          -3.784779   -1.733861    1.687656 H         1 <1>         0.134900 
     37 H          -4.053010   -3.676467    0.169665 H         1 <1>         0.131000 
     38 H          -3.434290   -4.858180   -1.883130 H         1 <1>         0.132500 
     39 H          -2.100114   -5.013164   -3.962171 H         1 <1>         0.132500 
     40 H          -0.478864   -3.206330   -4.533177 H         1 <1>         0.131100 
     41 H          -0.192943   -1.280074   -3.058558 H         1 <1>         0.127100 
     42 H          -3.338603    3.010476   -0.723180 H         1 <1>         0.172500 
     43 H          -2.771623    1.552083   -1.521210 H         1 <1>         0.149000 
     44 H          -2.958375    3.452211   -3.143389 H         1 <1>         0.147600 
     45 H          -1.251968    2.996054   -2.986350 H         1 <1>         0.135500 
     46 H          -1.868527    4.431550   -2.145421 H         1 <1>         0.171500 
     47 H          -0.140327    4.316189    2.303774 H         1 <1>         0.353800 
@<TRIPOS>BOND
     1   15   40 1    
     2   16   41 1    
     3    4   31 1    
     4   20   45 1    
     5   16   15 ar   
     6   15   14 ar   
     7    7   33 1    
     8   17   16 ar   
     9    2   30 1    
    10    7   34 1    
    11    4   32 1    
    12   14   39 1    
    13    5    4 1    
    14    4    3 1    
    15   20   46 1    
    16   20   44 1    
    17   19   20 1    
    18    6    7 1    
    19    7    8 1    
    20   14   13 ar   
    21    2   29 1    
    22    6    5 ar   
    23    5   24 ar   
    24    3    2 1    
    25    2    1 1    
    26   18    6 ar   
    27   24   25 2    
    28    8   17 ar   
    29   17   12 ar   
    30   24   23 ar   
    31   18   19 1    
    32   18   21 ar   
    33    8    9 ar   
    34   19   43 1    
    35   19   42 1    
    36    1   27 1    
    37   23   21 ar   
    38   23   47 1    
    39   13   12 ar   
    40   13   38 1    
    41   21   22 2    
    42    1   28 1    
    43    1   26 1    
    44   12   11 ar   
    45    9   35 1    
    46    9   10 ar   
    47   11   10 ar   
    48   11   37 1    
    49   10   36 1    
@<TRIPOS>SUBSTRUCTURE
     1 ****       40 TEMP              0 ****  ****    0 ROOT 
