#	Name:			SGF-2005-CPB-886-7T
#	Creating user name:	Administrator
#	Creation time:		Sun Jul 05 16:46:37 2020

#	Modifying user name:	Administrator
#	Modification time:	Sun Jul 05 16:48:40 2020

@<TRIPOS>MOLECULE
SGF-2005-CPB-886-7T
   55    58     1     0     0
SMALL
MULLIKEN_CHARGES
INVALID_CHARGES
Gaussian 16 #p B3LYP/6-31G* opt
@<TRIPOS>ATOM
      1 C          -2.356123    3.698126   -2.223299 C.3       1 <1>        -0.458100 
      2 C          -2.491124    2.520133   -1.236870 C.3       1 <1>        -0.146800 
      3 C          -3.873332    2.511706   -0.551489 C.3       1 <1>        -0.457000 
      4 C          -1.359371    2.493667   -0.219132 C.ar      1 <1>         0.061700 
      5 C          -0.438761    1.490202   -0.109819 C.ar      1 <1>         0.027900 
      6 S          -0.467355    0.040233   -1.185104 S.3       1 <1>         0.155400 
      7 C           0.021794    0.721404   -2.784988 C.ar      1 <1>        -0.177700 
      8 C           1.137773    1.529937   -2.881700 C.ar      1 <1>        -0.158600 
      9 C           1.541860    2.043330   -4.134827 C.ar      1 <1>        -0.130100 
     10 C           0.851135    1.713843   -5.277698 C.ar      1 <1>        -0.189100 
     11 C          -0.283217    0.863201   -5.219470 C.ar      1 <1>         0.143600 
     12 C          -0.998059    0.505688   -6.394464 C.ar      1 <1>        -0.190700 
     13 C          -2.102635   -0.311410   -6.334048 C.ar      1 <1>        -0.131300 
     14 C          -2.546942   -0.804034   -5.084533 C.ar      1 <1>        -0.134900 
     15 C          -1.879190   -0.479207   -3.924774 C.ar      1 <1>        -0.203000 
     16 C          -0.727727    0.355727   -3.949870 C.ar      1 <1>         0.122700 
     17 N           0.548413    1.474730    0.897617 N.ar      1 <1>        -0.529300 
     18 C           1.593580    0.469622    0.977078 C.3       1 <1>         0.085500 
     19 O           2.628030    0.842545    0.080116 O.3       1 <1>        -0.468000 
     20 C           3.676932   -0.114089   -0.011656 C.3       1 <1>        -0.096900 
     21 C           4.573375   -0.187114    1.212565 C.ar      1 <1>         0.101600 
     22 C           5.265024   -1.370568    1.499123 C.ar      1 <1>        -0.179300 
     23 C           6.144300   -1.431295    2.581256 C.ar      1 <1>        -0.130900 
     24 C           6.335881   -0.317766    3.399586 C.ar      1 <1>        -0.195800 
     25 C           5.630279    0.843607    3.104830 C.ar      1 <1>         0.383000 
     26 F           5.803605    1.924468    3.893157 F         1 <1>        -0.295000 
     27 C           4.757042    0.934993    2.027710 C.ar      1 <1>        -0.240300 
     28 C           0.702863    2.543295    1.797753 C.ar      1 <1>         0.800800 
     29 O           1.580665    2.588090    2.643646 O.2       1 <1>        -0.508500 
     30 N          -0.232456    3.541318    1.648730 N.ar      1 <1>        -0.700800 
     31 C          -1.264158    3.632635    0.709821 C.ar      1 <1>         0.609100 
     32 O          -1.997217    4.612653    0.723018 O.2       1 <1>        -0.501600 
     33 H          -3.145753    3.635217   -2.981157 H         1 <1>         0.140600 
     34 H          -2.448862    4.655821   -1.705818 H         1 <1>         0.178800 
     35 H          -1.391072    3.670496   -2.740870 H         1 <1>         0.146600 
     36 H          -2.420321    1.599914   -1.820026 H         1 <1>         0.155600 
     37 H          -3.981341    1.642242    0.107473 H         1 <1>         0.137900 
     38 H          -4.660129    2.455568   -1.312937 H         1 <1>         0.140600 
     39 H          -4.028833    3.417669    0.038538 H         1 <1>         0.181800 
     40 H           1.714927    1.759537   -1.992160 H         1 <1>         0.178900 
     41 H           2.414314    2.688653   -4.186098 H         1 <1>         0.140600 
     42 H           1.167529    2.096490   -6.244834 H         1 <1>         0.137500 
     43 H          -0.651038    0.894564   -7.348753 H         1 <1>         0.135800 
     44 H          -2.638329   -0.576346   -7.241269 H         1 <1>         0.136300 
     45 H          -3.425414   -1.441841   -5.039209 H         1 <1>         0.136900 
     46 H          -2.235645   -0.859895   -2.973452 H         1 <1>         0.158900 
     47 H           1.188261   -0.508608    0.708471 H         1 <1>         0.167700 
     48 H           1.950997    0.462125    2.007296 H         1 <1>         0.196700 
     49 H           3.266100   -1.110849   -0.237414 H         1 <1>         0.142800 
     50 H           4.259700    0.201591   -0.884553 H         1 <1>         0.172800 
     51 H           5.116748   -2.247673    0.873487 H         1 <1>         0.125400 
     52 H           6.677846   -2.353136    2.795700 H         1 <1>         0.138700 
     53 H           7.006533   -0.337790    4.252122 H         1 <1>         0.146400 
     54 H           4.210939    1.855207    1.851218 H         1 <1>         0.178000 
     55 H          -0.143515    4.320943    2.291130 H         1 <1>         0.357000 
@<TRIPOS>BOND
     1    9   41 1    
     2   10   42 1    
     3    9   10 ar   
     4    8    9 ar   
     5   11   10 ar   
     6    1   35 1    
     7   12   43 1    
     8    1   34 1    
     9    8   40 1    
    10    7    8 ar   
    11   25   26 1    
    12   27   54 1    
    13    1   33 1    
    14    2    1 1    
    15   11   12 ar   
    16   16   11 ar   
    17   30   55 1    
    18   20   50 1    
    19   31   32 2    
    20   12   13 ar   
    21   27   25 ar   
    22   21   27 ar   
    23   25   24 ar   
    24   31   30 ar   
    25   28   30 ar   
    26    4   31 ar   
    27   19   20 1    
    28   18   19 1    
    29   28   29 2    
    30    7   16 ar   
    31    6    7 1    
    32   17   28 ar   
    33   20   21 1    
    34   20   49 1    
    35   21   22 ar   
    36   16   15 ar   
    37    4    2 1    
    38    5    4 ar   
    39   24   53 1    
    40   24   23 ar   
    41    2   36 1    
    42    2    3 1    
    43   13   44 1    
    44   13   14 ar   
    45    5   17 ar   
    46   17   18 1    
    47    5    6 1    
    48    3   39 1    
    49   22   23 ar   
    50   22   51 1    
    51   18   48 1    
    52   18   47 1    
    53   23   52 1    
    54    3   38 1    
    55    3   37 1    
    56   15   14 ar   
    57   15   46 1    
    58   14   45 1    
@<TRIPOS>SUBSTRUCTURE
     1 ****       55 TEMP              0 ****  ****    0 ROOT 
