#	Name:			SGF-2005-CPB-886-7V
#	Creating user name:	Administrator
#	Creation time:		Sun Jul 05 16:46:37 2020

#	Modifying user name:	Administrator
#	Modification time:	Sun Jul 05 16:48:40 2020

@<TRIPOS>MOLECULE
SGF-2005-CPB-886-7V
   58    61     1     0     0
SMALL
MULLIKEN_CHARGES
INVALID_CHARGES
Gaussian 16 #p B3LYP/6-31G* opt
@<TRIPOS>ATOM
      1 C          -3.848118    2.496642   -0.666032 C.3       1 <1>        -0.454900 
      2 C          -2.440514    2.564910   -1.293373 C.3       1 <1>        -0.145600 
      3 C          -2.292180    3.795545   -2.211209 C.3       1 <1>        -0.459900 
      4 C          -1.349655    2.502197   -0.231320 C.ar      1 <1>         0.044300 
      5 C          -0.452123    1.480165   -0.092242 C.ar      1 <1>         0.028800 
      6 S          -0.558148    0.027833   -1.143936 S.3       1 <1>         0.197500 
      7 C           0.938925    0.163903   -2.141992 C.ar      1 <1>        -0.186700 
      8 C           1.443411    1.394409   -2.514540 C.ar      1 <1>        -0.155000 
      9 C           2.593749    1.485316   -3.330176 C.ar      1 <1>        -0.125200 
     10 C           3.213767    0.347141   -3.788750 C.ar      1 <1>        -0.191800 
     11 C           2.718605   -0.936230   -3.438360 C.ar      1 <1>         0.146500 
     12 C           3.347038   -2.122444   -3.904222 C.ar      1 <1>        -0.191000 
     13 C           2.872641   -3.364628   -3.551989 C.ar      1 <1>        -0.130400 
     14 C           1.744502   -3.474648   -2.706120 C.ar      1 <1>        -0.134300 
     15 C           1.108804   -2.346791   -2.236148 C.ar      1 <1>        -0.207900 
     16 C           1.565253   -1.046470   -2.588157 C.ar      1 <1>         0.115400 
     17 N           0.556031    1.478088    0.889329 N.ar      1 <1>        -0.523900 
     18 C           1.321504    0.285018    1.222327 C.3       1 <1>         0.087600 
     19 O           0.500132   -0.556944    2.000266 O.3       1 <1>        -0.473600 
     20 C           1.157245   -1.759790    2.376923 C.3       1 <1>        -0.009000 
     21 C           0.192311   -2.575888    3.239899 C.3       1 <1>        -0.365700 
     22 C           0.803915   -3.884444    3.692614 C.ar      1 <1>         0.157600 
     23 C           1.577666   -3.948324    4.859678 C.ar      1 <1>        -0.179800 
     24 C           2.172734   -5.144880    5.260835 C.ar      1 <1>        -0.127400 
     25 C           2.002818   -6.301943    4.498182 C.ar      1 <1>        -0.130600 
     26 C           1.233640   -6.252927    3.334450 C.ar      1 <1>        -0.127200 
     27 C           0.641038   -5.053475    2.937271 C.ar      1 <1>        -0.179800 
     28 C           0.706502    2.542701    1.794221 C.ar      1 <1>         0.797700 
     29 O           1.559342    2.575694    2.663835 O.2       1 <1>        -0.506700 
     30 N          -0.199155    3.566566    1.611913 N.ar      1 <1>        -0.698000 
     31 C          -1.264248    3.633225    0.712086 C.ar      1 <1>         0.609800 
     32 O          -2.016716    4.597954    0.743813 O.2       1 <1>        -0.501200 
     33 H          -3.967804    1.589312   -0.062859 H         1 <1>         0.141700 
     34 H          -4.605526    2.475904   -1.458462 H         1 <1>         0.141200 
     35 H          -4.038228    3.364450   -0.029888 H         1 <1>         0.181000 
     36 H          -2.322170    1.678873   -1.921495 H         1 <1>         0.161900 
     37 H          -1.308525    3.812060   -2.695810 H         1 <1>         0.135700 
     38 H          -2.421405    4.725886   -1.654185 H         1 <1>         0.183500 
     39 H          -3.050778    3.756548   -3.001670 H         1 <1>         0.142300 
     40 H           0.952779    2.304227   -2.183661 H         1 <1>         0.150900 
     41 H           2.973540    2.466304   -3.601155 H         1 <1>         0.141400 
     42 H           4.091346    0.413295   -4.426676 H         1 <1>         0.138000 
     43 H           4.217503   -2.027020   -4.548667 H         1 <1>         0.136800 
     44 H           3.364471   -4.262002   -3.916880 H         1 <1>         0.137400 
     45 H           1.378524   -4.457461   -2.422101 H         1 <1>         0.137300 
     46 H           0.249121   -2.449533   -1.581827 H         1 <1>         0.160100 
     47 H           1.647722   -0.213290    0.305933 H         1 <1>         0.163800 
     48 H           2.193810    0.621729    1.788579 H         1 <1>         0.185600 
     49 H           2.077099   -1.535206    2.940884 H         1 <1>         0.134600 
     50 H           1.450798   -2.333419    1.482193 H         1 <1>         0.132000 
     51 H          -0.093749   -1.964214    4.103402 H         1 <1>         0.161600 
     52 H          -0.718931   -2.756969    2.658304 H         1 <1>         0.157200 
     53 H           1.708481   -3.052230    5.462745 H         1 <1>         0.128600 
     54 H           2.764961   -5.174496    6.171811 H         1 <1>         0.130900 
     55 H           2.462186   -7.235711    4.811340 H         1 <1>         0.129400 
     56 H           1.090185   -7.150013    2.737501 H         1 <1>         0.128600 
     57 H           0.037048   -5.023722    2.032619 H         1 <1>         0.122500 
     58 H          -0.118268    4.338032    2.265170 H         1 <1>         0.356200 
@<TRIPOS>BOND
     1   28   29 2    
     2    9   41 1    
     3   18   48 1    
     4   10   42 1    
     5   30   58 1    
     6   30   28 ar   
     7   17   28 ar   
     8    9   10 ar   
     9    8    9 ar   
    10   11   10 ar   
    11   20   49 1    
    12   31   30 ar   
    13   24   54 1    
    14   12   43 1    
    15   18   47 1    
    16   17   18 1    
    17   18   19 1    
    18   23   53 1    
    19    5   17 ar   
    20    8   40 1    
    21    7    8 ar   
    22   11   12 ar   
    23   16   11 ar   
    24   23   24 ar   
    25   24   25 ar   
    26   12   13 ar   
    27   22   23 ar   
    28   19   20 1    
    29   20   50 1    
    30   20   21 1    
    31   31   32 2    
    32    4   31 ar   
    33    7   16 ar   
    34    6    7 1    
    35   25   55 1    
    36   16   15 ar   
    37    4    5 ar   
    38    5    6 1    
    39   26   25 ar   
    40   13   44 1    
    41   14   13 ar   
    42   21   51 1    
    43   21   22 1    
    44   22   27 ar   
    45   21   52 1    
    46    2    4 1    
    47    3   37 1    
    48    3   38 1    
    49   15   14 ar   
    50   15   46 1    
    51   14   45 1    
    52   27   26 ar   
    53   26   56 1    
    54   27   57 1    
    55    3    2 1    
    56    3   39 1    
    57    2   36 1    
    58    2    1 1    
    59    1   35 1    
    60    1   33 1    
    61    1   34 1    
@<TRIPOS>SUBSTRUCTURE
     1 ****       37 TEMP              0 ****  ****    0 ROOT 
