#	Name:			SGF-2005-CPB-886-12B
#	Creating user name:	Administrator
#	Creation time:		Sun Jul 05 16:46:34 2020

#	Modifying user name:	Administrator
#	Modification time:	Sun Jul 05 16:48:40 2020

@<TRIPOS>MOLECULE
SGF-2005-CPB-886-12B
   47    49     1     0     0
SMALL
MULLIKEN_CHARGES
INVALID_CHARGES
Gaussian 16 #p B3LYP/6-31G* opt
@<TRIPOS>ATOM
      1 C           4.214657    1.591224   -1.542872 C.3       1 <1>        -0.455100 
      2 C           3.336737    1.721426   -0.310835 C.3       1 <1>        -0.029100 
      3 O           2.456286    0.591591   -0.279130 O.3       1 <1>        -0.449600 
      4 C           1.661620    0.494489    0.865946 C.3       1 <1>         0.055600 
      5 N           0.558047    1.483052    0.884835 N.ar      1 <1>        -0.529500 
      6 C          -0.457023    1.478457   -0.096900 C.ar      1 <1>         0.007100 
      7 S          -0.440737    0.015462   -1.163555 S.3       1 <1>         0.173200 
      8 C          -2.111063   -0.638426   -1.087924 C.ar      1 <1>        -0.180600 
      9 C          -2.811840   -0.739068   -2.317644 C.ar      1 <1>        -0.154200 
     10 C          -4.047982   -1.328005   -2.389004 C.ar      1 <1>        -0.187700 
     11 C          -4.645449   -1.869953   -1.219924 C.ar      1 <1>         0.125200 
     12 C          -5.923554   -2.487233   -1.261059 C.ar      1 <1>        -0.193700 
     13 C          -6.487104   -3.039702   -0.133402 C.ar      1 <1>        -0.130400 
     14 C          -5.784225   -3.009536    1.092020 C.ar      1 <1>        -0.133200 
     15 C          -4.544873   -2.411187    1.167656 C.ar      1 <1>        -0.198200 
     16 C          -3.945456   -1.809517    0.028146 C.ar      1 <1>         0.117200 
     17 C          -2.656100   -1.165561    0.087597 C.ar      1 <1>         0.249600 
     18 N          -1.973342   -1.130975    1.294675 N.pl3     1 <1>        -0.801900 
     19 C          -1.345425    2.506867   -0.224537 C.ar      1 <1>         0.057400 
     20 C          -2.399372    2.647582   -1.296231 C.3       1 <1>        -0.324100 
     21 C          -3.842791    2.464481   -0.792964 C.3       1 <1>        -0.451900 
     22 C          -1.265076    3.630907    0.716955 C.ar      1 <1>         0.600500 
     23 O          -1.987340    4.618509    0.699467 O.2       1 <1>        -0.503800 
     24 N          -0.260542    3.519806    1.684426 N.ar      1 <1>        -0.696300 
     25 C           0.703579    2.542249    1.796237 C.ar      1 <1>         0.777800 
     26 O           1.593758    2.596743    2.631151 O.2       1 <1>        -0.516100 
     27 H           3.603337    1.569992   -2.450664 H         1 <1>         0.163900 
     28 H           4.903111    2.440835   -1.607341 H         1 <1>         0.149500 
     29 H           4.802015    0.668505   -1.502083 H         1 <1>         0.161800 
     30 H           2.754881    2.653645   -0.347163 H         1 <1>         0.136800 
     31 H           3.939012    1.743291    0.608845 H         1 <1>         0.143800 
     32 H           1.238625   -0.508711    0.859296 H         1 <1>         0.186100 
     33 H           2.226075    0.674623    1.782741 H         1 <1>         0.196400 
     34 H          -2.349105   -0.326019   -3.208794 H         1 <1>         0.147900 
     35 H          -4.579269   -1.387434   -3.334555 H         1 <1>         0.131000 
     36 H          -6.450189   -2.519915   -2.211782 H         1 <1>         0.135000 
     37 H          -7.465592   -3.509220   -0.184513 H         1 <1>         0.135400 
     38 H          -6.218670   -3.466278    1.976757 H         1 <1>         0.133900 
     39 H          -4.013794   -2.437556    2.114102 H         1 <1>         0.127300 
     40 H          -1.201197   -0.481775    1.342171 H         1 <1>         0.349400 
     41 H          -2.547512   -1.089076    2.125166 H         1 <1>         0.331600 
     42 H          -2.191890    1.951600   -2.111514 H         1 <1>         0.155100 
     43 H          -2.307129    3.662349   -1.701983 H         1 <1>         0.165200 
     44 H          -4.070512    3.200014   -0.016985 H         1 <1>         0.171500 
     45 H          -4.002270    1.460801   -0.388247 H         1 <1>         0.151400 
     46 H          -4.548450    2.610593   -1.618238 H         1 <1>         0.143800 
     47 H          -0.171451    4.295007    2.331967 H         1 <1>         0.355000 
@<TRIPOS>BOND
     1    9   34 1    
     2   10   35 1    
     3   20   43 1    
     4   20   42 1    
     5   21   46 1    
     6    1   27 1    
     7    9   10 ar   
     8    8    9 ar   
     9   10   11 ar   
    10   20   21 1    
    11   19   20 1    
    12    1   28 1    
    13   12   36 1    
    14   21   44 1    
    15   21   45 1    
    16    1   29 1    
    17    2    1 1    
    18    7    8 1    
    19    6    7 1    
    20    6   19 ar   
    21   19   22 ar   
    22    8   17 ar   
    23   11   12 ar   
    24   16   11 ar   
    25    2   30 1    
    26   12   13 ar   
    27   22   23 2    
    28    3    2 1    
    29    2   31 1    
    30    5    6 ar   
    31   22   24 ar   
    32    4    3 1    
    33   17   16 ar   
    34   17   18 1    
    35   16   15 ar   
    36   13   37 1    
    37   13   14 ar   
    38    5    4 1    
    39    5   25 ar   
    40   24   47 1    
    41   24   25 ar   
    42    4   32 1    
    43    4   33 1    
    44   25   26 2    
    45   18   40 1    
    46   18   41 1    
    47   15   14 ar   
    48   15   39 1    
    49   14   38 1    
@<TRIPOS>SUBSTRUCTURE
     1 ****       43 TEMP              0 ****  ****    0 ROOT 
