#	Name:			SGF-2005-CPB-886-8C
#	Creating user name:	Administrator
#	Creation time:		Sun Jul 05 16:46:38 2020

#	Modifying user name:	Administrator
#	Modification time:	Sun Jul 05 16:48:40 2020

@<TRIPOS>MOLECULE
SGF-2005-CPB-886-8C
   52    55     1     0     0
SMALL
MULLIKEN_CHARGES
INVALID_CHARGES
Gaussian 16 #p B3LYP/6-31G* opt
@<TRIPOS>ATOM
      1 C          -2.117796    3.411507   -2.451009 C.3       1 <1>        -0.446700 
      2 C          -2.481874    2.573804   -1.212080 C.3       1 <1>        -0.324400 
      3 C          -1.358171    2.494706   -0.205949 C.ar      1 <1>         0.032300 
      4 C          -0.449325    1.483543   -0.097820 C.ar      1 <1>         0.045800 
      5 S          -0.497104    0.115836   -1.260641 S.3       1 <1>         0.176600 
      6 C          -0.964939   -1.272059   -0.212706 C.ar      1 <1>        -0.121400 
      7 C          -2.077730   -1.186577    0.667276 C.ar      1 <1>        -0.143300 
      8 C          -2.464697   -2.288273    1.392275 C.ar      1 <1>        -0.181600 
      9 C          -1.783525   -3.530332    1.268420 C.ar      1 <1>         0.136100 
     10 C          -2.168199   -4.685535    1.998187 C.ar      1 <1>        -0.190600 
     11 C          -1.479369   -5.869719    1.855244 C.ar      1 <1>        -0.132300 
     12 C          -0.370822   -5.950918    0.977182 C.ar      1 <1>        -0.135700 
     13 C           0.027091   -4.848659    0.254203 C.ar      1 <1>        -0.189000 
     14 C          -0.666768   -3.614844    0.375573 C.ar      1 <1>         0.136500 
     15 C          -0.273371   -2.458613   -0.350778 C.ar      1 <1>        -0.225300 
     16 N           0.566138    1.485320    0.875462 N.ar      1 <1>        -0.522300 
     17 C           1.698789    0.573968    0.832646 C.3       1 <1>         0.083300 
     18 O           2.643422    1.096096   -0.084316 O.3       1 <1>        -0.464300 
     19 C           3.903727    0.434195   -0.025060 C.3       1 <1>        -0.110500 
     20 C           3.886440   -0.973241   -0.593898 C.ar      1 <1>         0.122900 
     21 C           3.336298   -1.210977   -1.861840 C.ar      1 <1>        -0.163700 
     22 C           3.340745   -2.494753   -2.406507 C.ar      1 <1>        -0.139500 
     23 C           3.897552   -3.559979   -1.690547 C.ar      1 <1>        -0.133300 
     24 C           4.444175   -3.332674   -0.427222 C.ar      1 <1>        -0.126700 
     25 C           4.433671   -2.045711    0.117275 C.ar      1 <1>        -0.181400 
     26 C           0.703864    2.540916    1.795550 C.ar      1 <1>         0.800500 
     27 O           1.579510    2.583520    2.641866 O.2       1 <1>        -0.508900 
     28 N          -0.246907    3.533326    1.668551 N.ar      1 <1>        -0.701000 
     29 C          -1.258836    3.639742    0.713202 C.ar      1 <1>         0.609700 
     30 O          -1.996296    4.615516    0.700773 O.2       1 <1>        -0.503600 
     31 H          -1.281414    2.963965   -2.999793 H         1 <1>         0.149000 
     32 H          -1.836772    4.428343   -2.160248 H         1 <1>         0.168700 
     33 H          -2.974463    3.477265   -3.131104 H         1 <1>         0.146800 
     34 H          -3.337695    3.041108   -0.714065 H         1 <1>         0.167600 
     35 H          -2.777050    1.568211   -1.521408 H         1 <1>         0.163700 
     36 H          -2.614826   -0.248257    0.763873 H         1 <1>         0.150100 
     37 H          -3.313320   -2.221156    2.068966 H         1 <1>         0.140500 
     38 H          -3.017495   -4.619835    2.674091 H         1 <1>         0.135500 
     39 H          -1.783128   -6.747454    2.418799 H         1 <1>         0.135700 
     40 H           0.166437   -6.890139    0.877216 H         1 <1>         0.134800 
     41 H           0.882240   -4.903111   -0.414887 H         1 <1>         0.140800 
     42 H           0.587940   -2.518461   -1.011061 H         1 <1>         0.167100 
     43 H           2.117526    0.542552    1.841829 H         1 <1>         0.178500 
     44 H           1.360498   -0.419451    0.539551 H         1 <1>         0.173500 
     45 H           4.277847    0.419255    1.010594 H         1 <1>         0.141800 
     46 H           4.574629    1.072629   -0.610107 H         1 <1>         0.166900 
     47 H           2.897940   -0.383831   -2.412997 H         1 <1>         0.152200 
     48 H           2.917572   -2.664650   -3.393322 H         1 <1>         0.135800 
     49 H           3.909089   -4.558657   -2.119327 H         1 <1>         0.132600 
     50 H           4.875617   -4.154938    0.137407 H         1 <1>         0.134000 
     51 H           4.856760   -1.874283    1.104938 H         1 <1>         0.131000 
     52 H          -0.156774    4.304604    2.320491 H         1 <1>         0.355400 
@<TRIPOS>BOND
     1   26   27 2    
     2   28   52 1    
     3   17   43 1    
     4   26   28 ar   
     5   16   26 ar   
     6   25   51 1    
     7   19   45 1    
     8   29   28 ar   
     9   10   38 1    
    10   11   39 1    
    11   16   17 1    
    12   17   44 1    
    13   17   18 1    
    14   10   11 ar   
    15    9   10 ar   
    16    8   37 1    
    17   12   11 ar   
    18    4   16 ar   
    19   25   24 ar   
    20   20   25 ar   
    21   24   50 1    
    22   18   19 1    
    23   19   46 1    
    24   19   20 1    
    25    8    9 ar   
    26    7    8 ar   
    27   29   30 2    
    28    3   29 ar   
    29   14    9 ar   
    30   12   40 1    
    31   13   12 ar   
    32   24   23 ar   
    33   20   21 ar   
    34    7   36 1    
    35    6    7 ar   
    36   14   13 ar   
    37   15   14 ar   
    38   13   41 1    
    39    4    3 ar   
    40    5    4 1    
    41    3    2 1    
    42    6   15 ar   
    43    6    5 1    
    44   15   42 1    
    45   23   49 1    
    46   23   22 ar   
    47   21   47 1    
    48   21   22 ar   
    49    2   34 1    
    50    2   35 1    
    51    2    1 1    
    52   22   48 1    
    53    1   32 1    
    54    1   31 1    
    55    1   33 1    
@<TRIPOS>SUBSTRUCTURE
     1 ****       37 TEMP              0 ****  ****    0 ROOT 
