#	Name:			SGF-2005-CPB-886-7N
#	Creating user name:	Administrator
#	Creation time:		Sun Jul 05 16:46:36 2020

#	Modifying user name:	Administrator
#	Modification time:	Sun Jul 05 16:48:40 2020

@<TRIPOS>MOLECULE
SGF-2005-CPB-886-7N
   55    58     1     0     0
SMALL
MULLIKEN_CHARGES
INVALID_CHARGES
Gaussian 16 #p B3LYP/6-31G* opt
@<TRIPOS>ATOM
      1 C          -4.076448    0.841246   -0.165063 C.3       1 <1>        -0.446400 
      2 C          -3.880861    2.285684   -0.633420 C.3       1 <1>        -0.258600 
      3 C          -2.480085    2.587118   -1.216589 C.3       1 <1>        -0.330200 
      4 C          -1.361020    2.494631   -0.206249 C.ar      1 <1>         0.039000 
      5 C          -0.445829    1.486083   -0.098226 C.ar      1 <1>         0.034500 
      6 S          -0.546635    0.066772   -1.192288 S.3       1 <1>         0.205800 
      7 C           0.923004    0.277508   -2.220290 C.ar      1 <1>        -0.199100 
      8 C           1.303415    1.529488   -2.662987 C.ar      1 <1>        -0.150300 
      9 C           2.417515    1.684424   -3.517971 C.ar      1 <1>        -0.125500 
     10 C           3.121216    0.584284   -3.948462 C.ar      1 <1>        -0.191100 
     11 C           2.755555   -0.720159   -3.524843 C.ar      1 <1>         0.146700 
     12 C           3.473351   -1.866439   -3.960554 C.ar      1 <1>        -0.191400 
     13 C           3.127147   -3.126830   -3.532094 C.ar      1 <1>        -0.130200 
     14 C           2.047012   -3.295185   -2.634409 C.ar      1 <1>        -0.134300 
     15 C           1.326114   -2.208063   -2.192681 C.ar      1 <1>        -0.204000 
     16 C           1.645349   -0.892097   -2.628153 C.ar      1 <1>         0.114200 
     17 N           0.565477    1.483239    0.879286 N.ar      1 <1>        -0.513900 
     18 C           1.438801    0.306388    1.112097 C.3       1 <1>         0.049300 
     19 O           0.766454   -0.751341    1.735227 O.3       1 <1>        -0.451400 
     20 C           0.705212   -0.682556    3.173335 C.3       1 <1>        -0.133100 
     21 C           2.025971   -1.009141    3.834897 C.ar      1 <1>         0.128500 
     22 C           2.736052   -0.039596    4.552003 C.ar      1 <1>        -0.180500 
     23 C           3.953330   -0.358729    5.159991 C.ar      1 <1>        -0.131400 
     24 C           4.473878   -1.647811    5.050091 C.ar      1 <1>        -0.127100 
     25 C           3.775590   -2.619849    4.326929 C.ar      1 <1>        -0.131000 
     26 C           2.560813   -2.301101    3.724278 C.ar      1 <1>        -0.164400 
     27 C           0.706450    2.539417    1.787178 C.ar      1 <1>         0.786500 
     28 O           1.555230    2.570906    2.667285 O.2       1 <1>        -0.521900 
     29 N          -0.202306    3.564270    1.620897 N.ar      1 <1>        -0.696700 
     30 C          -1.265915    3.634387    0.719308 C.ar      1 <1>         0.606200 
     31 O          -2.012110    4.603658    0.722156 O.2       1 <1>        -0.502700 
     32 H          -5.090730    0.691859    0.222766 H         1 <1>         0.144500 
     33 H          -3.925042    0.129838   -0.985719 H         1 <1>         0.149200 
     34 H          -3.376777    0.576914    0.636733 H         1 <1>         0.144400 
     35 H          -4.074466    2.981514    0.190517 H         1 <1>         0.162400 
     36 H          -4.618018    2.518016   -1.413246 H         1 <1>         0.136600 
     37 H          -2.491123    3.614107   -1.599032 H         1 <1>         0.162500 
     38 H          -2.280653    1.916988   -2.056764 H         1 <1>         0.165600 
     39 H           0.739700    2.405487   -2.357693 H         1 <1>         0.147500 
     40 H           2.700261    2.681236   -3.844259 H         1 <1>         0.140600 
     41 H           3.968595    0.697669   -4.619730 H         1 <1>         0.137600 
     42 H           4.308789   -1.725300   -4.642105 H         1 <1>         0.135600 
     43 H           3.685815   -3.993569   -3.874257 H         1 <1>         0.136400 
     44 H           1.787947   -4.290720   -2.284925 H         1 <1>         0.137700 
     45 H           0.512096   -2.351036   -1.489753 H         1 <1>         0.168900 
     46 H           2.279266    0.673678    1.701355 H         1 <1>         0.199500 
     47 H           1.788880   -0.058851    0.150816 H         1 <1>         0.187600 
     48 H          -0.053592   -1.425255    3.438619 H         1 <1>         0.155800 
     49 H           0.345706    0.300777    3.497334 H         1 <1>         0.152600 
     50 H           2.340720    0.970023    4.618654 H         1 <1>         0.160900 
     51 H           4.495089    0.403070    5.714464 H         1 <1>         0.132100 
     52 H           5.420065   -1.896770    5.523633 H         1 <1>         0.129400 
     53 H           4.178014   -3.625693    4.237632 H         1 <1>         0.129100 
     54 H           2.018438   -3.055649    3.159143 H         1 <1>         0.132600 
     55 H          -0.108772    4.336306    2.271605 H         1 <1>         0.355300 
@<TRIPOS>BOND
     1    1   32 1    
     2    1   33 1    
     3    1   34 1    
     4    2    1 1    
     5   14   44 1    
     6   20   48 1    
     7   26   54 1    
     8   15   45 1    
     9    2   36 1    
    10    2   35 1    
    11    3    2 1    
    12   15   14 ar   
    13   14   13 ar   
    14   16   15 ar   
    15   26   25 ar   
    16   21   26 ar   
    17   19   20 1    
    18   20   49 1    
    19   20   21 1    
    20   25   53 1    
    21   18   19 1    
    22    5    6 1    
    23    6    7 1    
    24   13   43 1    
    25    3   38 1    
    26   25   24 ar   
    27   13   12 ar   
    28   21   22 ar   
    29    4    3 1    
    30    3   37 1    
    31    7   16 ar   
    32   16   11 ar   
    33    5    4 ar   
    34   17    5 ar   
    35    4   30 ar   
    36   18   47 1    
    37   18   17 1    
    38   18   46 1    
    39    7    8 ar   
    40   24   52 1    
    41   24   23 ar   
    42   22   50 1    
    43   22   23 ar   
    44   17   27 ar   
    45   12   11 ar   
    46   12   42 1    
    47   11   10 ar   
    48   30   31 2    
    49   30   29 ar   
    50   23   51 1    
    51   27   29 ar   
    52   27   28 2    
    53    8   39 1    
    54    8    9 ar   
    55   29   55 1    
    56   10    9 ar   
    57   10   41 1    
    58    9   40 1    
@<TRIPOS>SUBSTRUCTURE
     1 ****       48 TEMP              0 ****  ****    0 ROOT 
