#	Name:			SGF-2005-CPB-886-8D
#	Creating user name:	Administrator
#	Creation time:		Sun Jul 05 16:46:38 2020

#	Modifying user name:	Administrator
#	Modification time:	Sun Jul 05 16:48:40 2020

@<TRIPOS>MOLECULE
SGF-2005-CPB-886-8D
   45    47     1     0     0
SMALL
MULLIKEN_CHARGES
INVALID_CHARGES
Gaussian 16 #p B3LYP/6-31G* opt
@<TRIPOS>ATOM
      1 C           1.316154   -1.885041    1.855246 C.3       1 <1>        -0.203300 
      2 O           0.606215   -0.672672    1.668748 O.3       1 <1>        -0.450600 
      3 C           1.415987    0.335506    1.103867 C.3       1 <1>         0.079700 
      4 N           0.576904    1.498573    0.866552 N.ar      1 <1>        -0.526100 
      5 C          -0.450258    1.483690   -0.096584 C.ar      1 <1>         0.026600 
      6 S          -0.472903    0.020004   -1.150643 S.3       1 <1>         0.179200 
      7 C          -0.090091    0.690589   -2.774531 C.ar      1 <1>        -0.095600 
      8 C          -0.733616    0.071727   -3.880117 C.ar      1 <1>        -0.159000 
      9 C          -0.437739    0.469873   -5.162865 C.ar      1 <1>        -0.182100 
     10 C           0.495779    1.509969   -5.413789 C.ar      1 <1>         0.133800 
     11 C           0.811205    1.950615   -6.726309 C.ar      1 <1>        -0.188800 
     12 C           1.722162    2.962521   -6.929457 C.ar      1 <1>        -0.133900 
     13 C           2.360290    3.581363   -5.825812 C.ar      1 <1>        -0.133800 
     14 C           2.075625    3.178642   -4.540890 C.ar      1 <1>        -0.189000 
     15 C           1.139123    2.137077   -4.296993 C.ar      1 <1>         0.146100 
     16 C           0.835244    1.692663   -2.983394 C.ar      1 <1>        -0.215000 
     17 C          -1.375765    2.482645   -0.205008 C.ar      1 <1>         0.061700 
     18 C          -2.538402    2.481064   -1.187925 C.3       1 <1>        -0.144200 
     19 C          -2.468372    3.657791   -2.182433 C.3       1 <1>        -0.459100 
     20 C          -3.894600    2.444909   -0.452779 C.3       1 <1>        -0.456600 
     21 C          -1.263134    3.632685    0.707284 C.ar      1 <1>         0.607400 
     22 O          -2.001231    4.609228    0.727681 O.2       1 <1>        -0.503000 
     23 N          -0.205541    3.559643    1.619591 N.ar      1 <1>        -0.699000 
     24 C           0.704535    2.541617    1.799010 C.ar      1 <1>         0.792900 
     25 O           1.554467    2.568510    2.673109 O.2       1 <1>        -0.508900 
     26 H           2.168023   -1.753273    2.539452 H         1 <1>         0.143700 
     27 H           1.687783   -2.286431    0.899960 H         1 <1>         0.142800 
     28 H           0.613344   -2.596760    2.293172 H         1 <1>         0.170300 
     29 H           2.203475    0.651347    1.792656 H         1 <1>         0.192400 
     30 H           1.853047   -0.000808    0.156415 H         1 <1>         0.161400 
     31 H          -1.466390   -0.710253   -3.703315 H         1 <1>         0.149300 
     32 H          -0.934180   -0.005218   -6.005648 H         1 <1>         0.139700 
     33 H           0.319134    1.473616   -7.570718 H         1 <1>         0.134900 
     34 H           1.955827    3.291354   -7.938263 H         1 <1>         0.135900 
     35 H           3.077126    4.379233   -5.998956 H         1 <1>         0.136700 
     36 H           2.563814    3.653736   -3.693332 H         1 <1>         0.135800 
     37 H           1.340666    2.163069   -2.144524 H         1 <1>         0.143300 
     38 H          -2.465724    1.559064   -1.768936 H         1 <1>         0.151600 
     39 H          -2.567484    4.614434   -1.664454 H         1 <1>         0.179800 
     40 H          -1.522746    3.653851   -2.735259 H         1 <1>         0.145700 
     41 H          -3.282996    3.572132   -2.911229 H         1 <1>         0.138500 
     42 H          -4.707835    2.371516   -1.184563 H         1 <1>         0.139500 
     43 H          -4.046587    3.349347    0.140759 H         1 <1>         0.180600 
     44 H          -3.959855    1.575176    0.210971 H         1 <1>         0.142700 
     45 H          -0.126589    4.332820    2.270786 H         1 <1>         0.356000 
@<TRIPOS>BOND
     1    8   31 1    
     2   20   42 1    
     3   20   44 1    
     4    9   32 1    
     5   20   43 1    
     6   18   20 1    
     7    8    9 ar   
     8    7    8 ar   
     9   18   38 1    
    10    1   28 1    
    11    9   10 ar   
    12   19   41 1    
    13    6    7 1    
    14    5    6 1    
    15   18   19 1    
    16   17   18 1    
    17    1   27 1    
    18    7   16 ar   
    19   11   33 1    
    20    2    1 1    
    21    1   26 1    
    22   19   40 1    
    23   19   39 1    
    24    3    2 1    
    25   10   11 ar   
    26   15   10 ar   
    27    5   17 ar   
    28   17   21 ar   
    29    4    5 ar   
    30   11   12 ar   
    31   16   15 ar   
    32   16   37 1    
    33    3   30 1    
    34    3    4 1    
    35    3   29 1    
    36   15   14 ar   
    37    4   24 ar   
    38   21   22 2    
    39   21   23 ar   
    40   12   34 1    
    41   12   13 ar   
    42   23   24 ar   
    43   23   45 1    
    44   24   25 2    
    45   14   13 ar   
    46   14   36 1    
    47   13   35 1    
@<TRIPOS>SUBSTRUCTURE
     1 ****       28 TEMP              0 ****  ****    0 ROOT 
