#	Name:			SGF-2005-CPB-886-7G
#	Creating user name:	Administrator
#	Creation time:		Sun Jul 05 16:46:35 2020

#	Modifying user name:	Administrator
#	Modification time:	Sun Jul 05 16:48:40 2020

@<TRIPOS>MOLECULE
SGF-2005-CPB-886-7G
   45    47     1     0     0
SMALL
MULLIKEN_CHARGES
INVALID_CHARGES
Gaussian 16 #p B3LYP/6-31G* opt
@<TRIPOS>ATOM
      1 C           3.852740    0.862633   -0.545502 C.3       1 <1>        -0.200600 
      2 O           2.577824    1.444050   -0.347895 O.3       1 <1>        -0.454900 
      3 C           1.834943    0.771268    0.647301 C.3       1 <1>         0.076600 
      4 N           0.595146    1.508518    0.845792 N.ar      1 <1>        -0.522400 
      5 C          -0.453728    1.476846   -0.090408 C.ar      1 <1>         0.044600 
      6 S          -0.523111    0.084218   -1.234087 S.3       1 <1>         0.182800 
      7 C          -0.503268   -1.420024   -0.238580 C.ar      1 <1>        -0.193700 
      8 C           0.433885   -2.365631   -0.618527 C.ar      1 <1>        -0.159000 
      9 C           0.478328   -3.637998   -0.005170 C.ar      1 <1>        -0.126800 
     10 C          -0.402566   -3.944973    1.003756 C.ar      1 <1>        -0.188000 
     11 C          -1.384149   -3.007703    1.421637 C.ar      1 <1>         0.146900 
     12 C          -2.309154   -3.327539    2.451402 C.ar      1 <1>        -0.191200 
     13 C          -3.284309   -2.435354    2.832001 C.ar      1 <1>        -0.129500 
     14 C          -3.378862   -1.180392    2.187608 C.ar      1 <1>        -0.142600 
     15 C          -2.494102   -0.834300    1.190217 C.ar      1 <1>        -0.195300 
     16 C          -1.464413   -1.722299    0.781897 C.ar      1 <1>         0.132300 
     17 C          -1.381346    2.477807   -0.195449 C.ar      1 <1>         0.035800 
     18 C          -2.533169    2.500035   -1.195144 C.3       1 <1>        -0.144200 
     19 C          -2.311534    3.584186   -2.270812 C.3       1 <1>        -0.454300 
     20 C          -3.913201    2.657336   -0.524239 C.3       1 <1>        -0.465500 
     21 C          -1.260188    3.633572    0.709423 C.ar      1 <1>         0.607100 
     22 O          -1.956173    4.640536    0.685969 O.2       1 <1>        -0.503800 
     23 N          -0.282223    3.503035    1.698472 N.ar      1 <1>        -0.692100 
     24 C           0.698980    2.542082    1.798847 C.ar      1 <1>         0.798200 
     25 O           1.579509    2.594195    2.638988 O.2       1 <1>        -0.507300 
     26 H           3.778212   -0.183139   -0.884250 H         1 <1>         0.132100 
     27 H           4.351109    1.450396   -1.319517 H         1 <1>         0.168600 
     28 H           4.458839    0.890071    0.373223 H         1 <1>         0.143900 
     29 H           1.618005   -0.256232    0.352877 H         1 <1>         0.159400 
     30 H           2.359534    0.776875    1.606502 H         1 <1>         0.184500 
     31 H           1.149563   -2.121905   -1.398493 H         1 <1>         0.154700 
     32 H           1.222938   -4.359761   -0.328098 H         1 <1>         0.141100 
     33 H          -0.365993   -4.914841    1.493677 H         1 <1>         0.140400 
     34 H          -2.233035   -4.300221    2.931248 H         1 <1>         0.136700 
     35 H          -3.985989   -2.693615    3.620069 H         1 <1>         0.138700 
     36 H          -4.158933   -0.482870    2.479911 H         1 <1>         0.140200 
     37 H          -2.583461    0.129316    0.705938 H         1 <1>         0.163600 
     38 H          -2.532969    1.533439   -1.704957 H         1 <1>         0.158500 
     39 H          -2.306943    4.581778   -1.823995 H         1 <1>         0.179400 
     40 H          -1.360831    3.433081   -2.794747 H         1 <1>         0.143700 
     41 H          -3.116958    3.542030   -3.013566 H         1 <1>         0.140800 
     42 H          -4.698704    2.582359   -1.285326 H         1 <1>         0.141300 
     43 H          -4.093785    1.867157    0.214372 H         1 <1>         0.137500 
     44 H          -4.005396    3.623733   -0.024971 H         1 <1>         0.186200 
     45 H          -0.199886    4.276571    2.348887 H         1 <1>         0.355500 
@<TRIPOS>BOND
     1   19   41 1    
     2   19   40 1    
     3   19   39 1    
     4   18   19 1    
     5   18   38 1    
     6    8   31 1    
     7   20   42 1    
     8    6    7 1    
     9    5    6 1    
    10   18   20 1    
    11   17   18 1    
    12    8    9 ar   
    13    7    8 ar   
    14    9   32 1    
    15    9   10 ar   
    16    1   27 1    
    17    7   16 ar   
    18    1   26 1    
    19   20   43 1    
    20   20   44 1    
    21    2    1 1    
    22    1   28 1    
    23    5   17 ar   
    24   17   21 ar   
    25    4    5 ar   
    26    3    2 1    
    27   10   33 1    
    28   11   10 ar   
    29   16   11 ar   
    30   16   15 ar   
    31   15   37 1    
    32    3   29 1    
    33   11   12 ar   
    34   15   14 ar   
    35    3    4 1    
    36    3   30 1    
    37    4   24 ar   
    38   21   22 2    
    39   21   23 ar   
    40   12   34 1    
    41   12   13 ar   
    42   14   36 1    
    43   14   13 ar   
    44   13   35 1    
    45   23   24 ar   
    46   23   45 1    
    47   24   25 2    
@<TRIPOS>SUBSTRUCTURE
     1 ****       27 TEMP              0 ****  ****    0 ROOT 
