#	Name:			SGF-2005-CPB-886-7O
#	Creating user name:	Administrator
#	Creation time:		Sun Jul 05 16:46:36 2020

#	Modifying user name:	Administrator
#	Modification time:	Sun Jul 05 16:48:40 2020

@<TRIPOS>MOLECULE
SGF-2005-CPB-886-7O
   51    53     1     0     0
SMALL
MULLIKEN_CHARGES
INVALID_CHARGES
Gaussian 16 #p B3LYP/6-31G* opt
@<TRIPOS>ATOM
      1 C          -0.099545   -2.501332    3.329401 C.3       1 <1>        -0.454700 
      2 C           0.925212   -1.758729    2.489084 C.3       1 <1>        -0.014400 
      3 O           0.349336   -0.524450    2.075922 O.3       1 <1>        -0.467300 
      4 C           1.233504    0.246736    1.294509 C.3       1 <1>         0.084900 
      5 N           0.539481    1.466378    0.903180 N.ar      1 <1>        -0.527000 
      6 C          -0.454924    1.479568   -0.092978 C.ar      1 <1>         0.038500 
      7 S          -0.615096    0.022496   -1.125648 S.3       1 <1>         0.206300 
      8 C           0.957328   -0.055392   -2.002416 C.ar      1 <1>        -0.194400 
      9 C           1.674814    1.084153   -2.309035 C.ar      1 <1>        -0.154000 
     10 C           2.884815    1.001155   -3.034783 C.ar      1 <1>        -0.126100 
     11 C           3.354182   -0.214920   -3.470700 C.ar      1 <1>        -0.192800 
     12 C           2.640796   -1.408465   -3.184196 C.ar      1 <1>         0.147300 
     13 C           3.112285   -2.673920   -3.625941 C.ar      1 <1>        -0.191700 
     14 C           2.427136   -3.830449   -3.334166 C.ar      1 <1>        -0.130600 
     15 C           1.235236   -3.771125   -2.575132 C.ar      1 <1>        -0.136000 
     16 C           0.747286   -2.561932   -2.130981 C.ar      1 <1>        -0.207000 
     17 C           1.422982   -1.345238   -2.424261 C.ar      1 <1>         0.116000 
     18 C          -1.332157    2.516593   -0.240497 C.ar      1 <1>         0.034900 
     19 C          -2.438292    2.615086   -1.267322 C.3       1 <1>        -0.329000 
     20 C          -2.330639    3.791442   -2.272600 C.3       1 <1>        -0.080500 
     21 C          -3.569368    3.793325   -3.180105 C.3       1 <1>        -0.444900 
     22 C          -1.043430    3.740655   -3.104829 C.3       1 <1>        -0.450500 
     23 C          -1.259083    3.636511    0.713695 C.ar      1 <1>         0.606600 
     24 O          -2.036393    4.580289    0.752102 O.2       1 <1>        -0.500300 
     25 N          -0.184045    3.579962    1.601589 N.ar      1 <1>        -0.696200 
     26 C           0.706804    2.543663    1.792858 C.ar      1 <1>         0.795600 
     27 O           1.560294    2.573627    2.661685 O.2       1 <1>        -0.506300 
     28 H           0.307573   -3.461116    3.665778 H         1 <1>         0.145400 
     29 H          -0.372959   -1.911152    4.209629 H         1 <1>         0.164600 
     30 H          -1.006773   -2.692021    2.747249 H         1 <1>         0.160700 
     31 H           1.211441   -2.353906    1.605706 H         1 <1>         0.128600 
     32 H           1.842905   -1.570864    3.070454 H         1 <1>         0.130600 
     33 H           1.556525   -0.297925    0.404079 H         1 <1>         0.163300 
     34 H           2.108648    0.557175    1.871542 H         1 <1>         0.184700 
     35 H           1.308110    2.056246   -1.998804 H         1 <1>         0.154700 
     36 H           3.431234    1.913711   -3.255625 H         1 <1>         0.141000 
     37 H           4.277523   -0.280620   -4.040377 H         1 <1>         0.137600 
     38 H           4.033391   -2.709264   -4.202634 H         1 <1>         0.136400 
     39 H           2.800757   -4.790129   -3.680099 H         1 <1>         0.137000 
     40 H           0.701794   -4.687352   -2.337585 H         1 <1>         0.137500 
     41 H          -0.163834   -2.536975   -1.542037 H         1 <1>         0.161100 
     42 H          -2.509797    1.678264   -1.825570 H         1 <1>         0.159800 
     43 H          -3.380455    2.735727   -0.716886 H         1 <1>         0.161700 
     44 H          -2.332327    4.720749   -1.692934 H         1 <1>         0.162100 
     45 H          -4.493810    3.859481   -2.594407 H         1 <1>         0.145000 
     46 H          -3.548783    4.645532   -3.869425 H         1 <1>         0.142100 
     47 H          -3.619828    2.878013   -3.784781 H         1 <1>         0.137300 
     48 H          -0.963987    2.799608   -3.664565 H         1 <1>         0.144500 
     49 H          -0.151743    3.832996   -2.474320 H         1 <1>         0.138400 
     50 H          -1.017257    4.562929   -3.829747 H         1 <1>         0.142900 
     51 H          -0.101711    4.347492    2.259143 H         1 <1>         0.356000 
@<TRIPOS>BOND
     1   10   36 1    
     2   11   37 1    
     3   10   11 ar   
     4    9   10 ar   
     5   26   27 2    
     6   12   11 ar   
     7   25   51 1    
     8    4   34 1    
     9    9   35 1    
    10   25   26 ar   
    11    5   26 ar   
    12    8    9 ar   
    13   13   38 1    
    14   23   25 ar   
    15   22   49 1    
    16   12   13 ar   
    17   17   12 ar   
    18   22   50 1    
    19    5    4 1    
    20    6    5 ar   
    21    4   33 1    
    22    4    3 1    
    23   13   14 ar   
    24    2   32 1    
    25   22   48 1    
    26   20   22 1    
    27   23   24 2    
    28   18   23 ar   
    29    8   17 ar   
    30    7    8 1    
    31   17   16 ar   
    32   18    6 ar   
    33    6    7 1    
    34   20   44 1    
    35   19   18 1    
    36    3    2 1    
    37    2   31 1    
    38    2    1 1    
    39   14   39 1    
    40   14   15 ar   
    41   20   19 1    
    42   20   21 1    
    43   16   15 ar   
    44   16   41 1    
    45   19   42 1    
    46   19   43 1    
    47   21   46 1    
    48   15   40 1    
    49    1   29 1    
    50    1   28 1    
    51    1   30 1    
    52   21   47 1    
    53   21   45 1    
@<TRIPOS>SUBSTRUCTURE
     1 ****       49 TEMP              0 ****  ****    0 ROOT 
