#	Name:			SGF-2005-CPB-886-11A
#	Creating user name:	Administrator
#	Creation time:		Sun Jul 05 16:46:34 2020

#	Modifying user name:	Administrator
#	Modification time:	Sun Jul 05 16:48:40 2020

@<TRIPOS>MOLECULE
SGF-2005-CPB-886-11A
   44    46     1     0     0
SMALL
MULLIKEN_CHARGES
INVALID_CHARGES
Gaussian 16 #p B3LYP/6-31G* opt
@<TRIPOS>ATOM
      1 C          -3.818261    2.111069   -0.672704 C.3       1 <1>        -0.448100 
      2 C          -2.464565    2.584297   -1.232641 C.3       1 <1>        -0.326200 
      3 C          -1.349420    2.502178   -0.217410 C.ar      1 <1>         0.037300 
      4 C          -0.454324    1.482075   -0.091807 C.ar      1 <1>         0.011200 
      5 S          -0.622528    0.019975   -1.127665 S.3       1 <1>         0.288700 
      6 C           0.830399    0.169216   -2.171131 C.ar      1 <1>        -0.144600 
      7 C           1.333617    1.450767   -2.516600 C.ar      1 <1>        -0.161700 
      8 C           2.432290    1.577830   -3.327907 C.ar      1 <1>        -0.154500 
      9 C           3.103303    0.445346   -3.857403 C.ar      1 <1>         0.109100 
     10 C           4.218875    0.590443   -4.722067 C.ar      1 <1>        -0.191400 
     11 C           4.853479   -0.512543   -5.243618 C.ar      1 <1>        -0.127100 
     12 C           4.388984   -1.806905   -4.916760 C.ar      1 <1>        -0.134200 
     13 C           3.313300   -1.987178   -4.074715 C.ar      1 <1>        -0.176700 
     14 C           2.637886   -0.867110   -3.516745 C.ar      1 <1>         0.145200 
     15 C           1.493736   -0.952881   -2.659788 C.ar      1 <1>         0.178300 
     16 N           0.989657   -2.268857   -2.263551 N.pl3     1 <1>         0.329900 
     17 O           1.800275   -3.127099   -1.908824 O.2       1 <1>        -0.379200 
     18 O          -0.232670   -2.428657   -2.276289 O.2       1 <1>        -0.358800 
     19 N           0.562677    1.481587    0.879265 N.ar      1 <1>        -0.520200 
     20 C           1.348421    0.291396    1.178021 C.3       1 <1>         0.084100 
     21 O           0.528680   -0.613738    1.876812 O.3       1 <1>        -0.450800 
     22 C           1.165378   -1.866135    2.074222 C.3       1 <1>        -0.209400 
     23 C           0.706245    2.540012    1.795057 C.ar      1 <1>         0.796300 
     24 O           1.562933    2.571467    2.660135 O.2       1 <1>        -0.503000 
     25 N          -0.206384    3.563313    1.625834 N.ar      1 <1>        -0.700200 
     26 C          -1.263973    3.636859    0.718763 C.ar      1 <1>         0.610800 
     27 O          -2.017775    4.599100    0.721797 O.2       1 <1>        -0.498400 
     28 H          -4.603007    2.229258   -1.428030 H         1 <1>         0.150300 
     29 H          -4.100311    2.700514    0.204919 H         1 <1>         0.170200 
     30 H          -3.780334    1.054686   -0.384275 H         1 <1>         0.154400 
     31 H          -2.207814    2.000550   -2.120127 H         1 <1>         0.164500 
     32 H          -2.557932    3.632801   -1.533773 H         1 <1>         0.170100 
     33 H           0.830733    2.333459   -2.138148 H         1 <1>         0.162400 
     34 H           2.795866    2.568530   -3.588837 H         1 <1>         0.153400 
     35 H           4.557323    1.593682   -4.967584 H         1 <1>         0.144100 
     36 H           5.705574   -0.393660   -5.906333 H         1 <1>         0.145000 
     37 H           4.888447   -2.677041   -5.333135 H         1 <1>         0.147300 
     38 H           2.985757   -2.988291   -3.828910 H         1 <1>         0.171800 
     39 H           2.194921    0.621600    1.786253 H         1 <1>         0.190000 
     40 H           1.720179   -0.148237    0.246599 H         1 <1>         0.149500 
     41 H           1.415907   -2.347799    1.116452 H         1 <1>         0.149800 
     42 H           0.455961   -2.495472    2.614938 H         1 <1>         0.171600 
     43 H           2.084184   -1.764595    2.671646 H         1 <1>         0.141300 
     44 H          -0.119842    4.330769    2.282991 H         1 <1>         0.357900 
@<TRIPOS>BOND
     1   23   24 2    
     2   20   39 1    
     3   25   44 1    
     4   10   35 1    
     5   23   25 ar   
     6   19   23 ar   
     7   11   36 1    
     8   22   43 1    
     9   26   25 ar   
    10    8   34 1    
    11   10   11 ar   
    12    9   10 ar   
    13   20   40 1    
    14   19   20 1    
    15   20   21 1    
    16   12   11 ar   
    17    4   19 ar   
    18    8    9 ar   
    19    7    8 ar   
    20   14    9 ar   
    21   21   22 1    
    22   22   41 1    
    23   22   42 1    
    24   12   37 1    
    25   13   12 ar   
    26    7   33 1    
    27   26   27 2    
    28    3   26 ar   
    29    6    7 ar   
    30   14   13 ar   
    31   15   14 ar   
    32   13   38 1    
    33    4    3 ar   
    34    5    4 1    
    35    6   15 ar   
    36    6    5 1    
    37    3    2 1    
    38   15   16 1    
    39   16   17 2    
    40   16   18 2    
    41    2   32 1    
    42    2   31 1    
    43    2    1 1    
    44    1   29 1    
    45    1   30 1    
    46    1   28 1    
@<TRIPOS>SUBSTRUCTURE
     1 ****       34 TEMP              0 ****  ****    0 ROOT 
