#	Name:			SGF-2005-CPB-886-8F
#	Creating user name:	Administrator
#	Creation time:		Sun Jul 05 16:46:38 2020

#	Modifying user name:	Administrator
#	Modification time:	Sun Jul 05 16:48:40 2020

@<TRIPOS>MOLECULE
SGF-2005-CPB-886-8F
   55    58     1     0     0
SMALL
MULLIKEN_CHARGES
INVALID_CHARGES
Gaussian 16 #p B3LYP/6-31G* opt
@<TRIPOS>ATOM
      1 C          -3.906793    2.380864   -0.398652 C.3       1 <1>        -0.455000 
      2 C          -2.564611    2.471955   -1.153266 C.3       1 <1>        -0.144400 
      3 C          -2.546871    3.677750   -2.115893 C.3       1 <1>        -0.464500 
      4 C          -1.380048    2.476549   -0.193450 C.ar      1 <1>         0.043600 
      5 C          -0.461788    1.467152   -0.076070 C.ar      1 <1>         0.016900 
      6 S          -0.727575   -0.088867   -0.956129 S.3       1 <1>         0.158600 
      7 C           0.422971   -0.040188   -2.337496 C.ar      1 <1>        -0.097900 
      8 C           0.588460    1.124751   -3.133482 C.ar      1 <1>        -0.154600 
      9 C           1.420103    1.095358   -4.227973 C.ar      1 <1>        -0.183200 
     10 C           2.105666   -0.092007   -4.604385 C.ar      1 <1>         0.131400 
     11 C           2.962895   -0.150165   -5.734743 C.ar      1 <1>        -0.190600 
     12 C           3.607820   -1.320370   -6.068800 C.ar      1 <1>        -0.133000 
     13 C           3.424296   -2.486453   -5.285875 C.ar      1 <1>        -0.133600 
     14 C           2.600159   -2.462583   -4.183140 C.ar      1 <1>        -0.187900 
     15 C           1.920099   -1.271463   -3.812503 C.ar      1 <1>         0.144600 
     16 C           1.076916   -1.209494   -2.670325 C.ar      1 <1>        -0.229400 
     17 N           0.607367    1.517354    0.838180 N.ar      1 <1>        -0.527000 
     18 C           1.679925    0.497195    0.968717 C.3       1 <1>         0.095300 
     19 O           2.953440    1.002417    0.709460 O.3       1 <1>        -0.450700 
     20 C           3.244420    1.311471   -0.650913 C.3       1 <1>        -0.099400 
     21 C           4.564241    2.043170   -0.719556 C.ar      1 <1>         0.120100 
     22 C           4.966228    2.893130    0.317999 C.ar      1 <1>        -0.170300 
     23 C           6.165170    3.599939    0.220551 C.ar      1 <1>        -0.134300 
     24 C           6.970323    3.471835   -0.913353 C.ar      1 <1>        -0.126900 
     25 C           6.572988    2.626088   -1.950210 C.ar      1 <1>        -0.130900 
     26 C           5.378141    1.911788   -1.850116 C.ar      1 <1>        -0.184100 
     27 C           0.708837    2.546057    1.788684 C.ar      1 <1>         0.797300 
     28 O           1.534477    2.551404    2.683393 O.2       1 <1>        -0.499600 
     29 N          -0.210164    3.563546    1.622211 N.ar      1 <1>        -0.698700 
     30 C          -1.258142    3.640495    0.707080 C.ar      1 <1>         0.609700 
     31 O          -2.000561    4.614034    0.721606 O.2       1 <1>        -0.502100 
     32 H          -4.733470    2.325861   -1.116582 H         1 <1>         0.143000 
     33 H          -4.061554    3.256820    0.236317 H         1 <1>         0.179700 
     34 H          -3.946460    1.482756    0.228426 H         1 <1>         0.141300 
     35 H          -2.475562    1.570080   -1.763209 H         1 <1>         0.161400 
     36 H          -2.679853    4.617945   -1.577701 H         1 <1>         0.189000 
     37 H          -1.604500    3.731976   -2.674751 H         1 <1>         0.137000 
     38 H          -3.359046    3.573641   -2.844735 H         1 <1>         0.142400 
     39 H           0.063095    2.036427   -2.869032 H         1 <1>         0.158800 
     40 H           1.553073    1.990725   -4.830416 H         1 <1>         0.144700 
     41 H           3.100586    0.746249   -6.334376 H         1 <1>         0.138800 
     42 H           4.260862   -1.353648   -6.936334 H         1 <1>         0.139100 
     43 H           3.938729   -3.403260   -5.560067 H         1 <1>         0.139500 
     44 H           2.459106   -3.356560   -3.580595 H         1 <1>         0.138400 
     45 H           0.955325   -2.099783   -2.058399 H         1 <1>         0.150100 
     46 H           1.418123   -0.335561    0.315023 H         1 <1>         0.168000 
     47 H           1.700297    0.175200    2.009383 H         1 <1>         0.187700 
     48 H           2.445170    1.942393   -1.068198 H         1 <1>         0.147400 
     49 H           3.276936    0.392384   -1.254179 H         1 <1>         0.144100 
     50 H           4.340626    2.982686    1.200642 H         1 <1>         0.165400 
     51 H           6.471644    4.252535    1.034018 H         1 <1>         0.130700 
     52 H           7.903836    4.023812   -0.986320 H         1 <1>         0.126400 
     53 H           7.197175    2.513667   -2.833043 H         1 <1>         0.125600 
     54 H           5.076465    1.245959   -2.656291 H         1 <1>         0.125900 
     55 H          -0.142157    4.323499    2.290362 H         1 <1>         0.356000 
@<TRIPOS>BOND
     1   18   47 1    
     2   14   44 1    
     3   18   46 1    
     4   16   45 1    
     5   18   19 1    
     6   17   18 1    
     7   19   20 1    
     8   27   28 2    
     9   14   13 ar   
    10   15   14 ar   
    11   13   43 1    
    12    5    6 1    
    13    6    7 1    
    14   16   15 ar   
    15    7   16 ar   
    16   17   27 ar   
    17    5   17 ar   
    18   29   27 ar   
    19   20   49 1    
    20   13   12 ar   
    21    1   34 1    
    22   15   10 ar   
    23    4    5 ar   
    24   20   21 1    
    25   20   48 1    
    26    7    8 ar   
    27   22   50 1    
    28   29   55 1    
    29   30   29 ar   
    30   21   22 ar   
    31   21   26 ar   
    32   22   23 ar   
    33    4   30 ar   
    34    2    4 1    
    35    1   33 1    
    36    1   32 1    
    37    1    2 1    
    38    2   35 1    
    39   26   54 1    
    40   26   25 ar   
    41   12   42 1    
    42   12   11 ar   
    43   30   31 2    
    44   23   51 1    
    45   23   24 ar   
    46   10   11 ar   
    47   10    9 ar   
    48    2    3 1    
    49    8   39 1    
    50    8    9 ar   
    51   25   24 ar   
    52   25   53 1    
    53   24   52 1    
    54   11   41 1    
    55    9   40 1    
    56    3   37 1    
    57    3   38 1    
    58    3   36 1    
@<TRIPOS>SUBSTRUCTURE
     1 ****       34 TEMP              0 ****  ****    0 ROOT 
