#	Name:			SGF-2005-CPB-886-11B
#	Creating user name:	Administrator
#	Creation time:		Sun Jul 05 16:46:34 2020

#	Modifying user name:	Administrator
#	Modification time:	Sun Jul 05 16:48:40 2020

@<TRIPOS>MOLECULE
SGF-2005-CPB-886-11B
   47    49     1     0     0
SMALL
MULLIKEN_CHARGES
INVALID_CHARGES
Gaussian 16 #p B3LYP/6-31G* opt
@<TRIPOS>ATOM
      1 C           2.251065   -2.603717    1.363760 C.3       1 <1>        -0.464900 
      2 C           1.772884   -1.565146    2.375812 C.3       1 <1>        -0.023000 
      3 O           0.894148   -0.591721    1.814776 O.3       1 <1>        -0.455700 
      4 C           1.517819    0.397205    1.039757 C.3       1 <1>         0.084700 
      5 N           0.577859    1.499263    0.860630 N.ar      1 <1>        -0.527300 
      6 C          -0.468318    1.473210   -0.075515 C.ar      1 <1>         0.051500 
      7 S          -0.474762    0.021976   -1.155200 S.3       1 <1>         0.191600 
      8 C          -2.109883   -0.714871   -1.038151 C.ar      1 <1>        -0.120900 
      9 C          -2.781641   -0.893452   -2.280110 C.ar      1 <1>        -0.173800 
     10 C          -3.982308   -1.555100   -2.350663 C.ar      1 <1>        -0.157500 
     11 C          -4.599788   -2.078981   -1.186412 C.ar      1 <1>         0.112100 
     12 C          -5.853585   -2.743303   -1.236860 C.ar      1 <1>        -0.189600 
     13 C          -6.430296   -3.245770   -0.093937 C.ar      1 <1>        -0.126900 
     14 C          -5.772836   -3.107035    1.152087 C.ar      1 <1>        -0.133500 
     15 C          -4.555590   -2.471554    1.240395 C.ar      1 <1>        -0.177200 
     16 C          -3.937163   -1.937460    0.075976 C.ar      1 <1>         0.152400 
     17 C          -2.685278   -1.257371    0.095933 C.ar      1 <1>         0.198800 
     18 N          -2.021777   -1.157489    1.412560 N.pl3     1 <1>         0.339900 
     19 O          -1.563729   -2.198160    1.875414 O.2       1 <1>        -0.359900 
     20 O          -2.030449   -0.064872    1.966323 O.2       1 <1>        -0.353000 
     21 C          -1.346395    2.503675   -0.219320 C.ar      1 <1>         0.057700 
     22 C          -2.402448    2.646677   -1.287520 C.3       1 <1>        -0.332000 
     23 C          -1.940966    3.551087   -2.445535 C.3       1 <1>        -0.448300 
     24 C          -1.260714    3.634850    0.716119 C.ar      1 <1>         0.617000 
     25 O          -2.000013    4.610072    0.703611 O.2       1 <1>        -0.508200 
     26 N          -0.238984    3.538506    1.660779 N.ar      1 <1>        -0.704200 
     27 C           0.701822    2.539931    1.797791 C.ar      1 <1>         0.807100 
     28 O           1.574719    2.577085    2.647539 O.2       1 <1>        -0.509800 
     29 H           1.391968   -3.086785    0.887511 H         1 <1>         0.169300 
     30 H           2.877293   -2.160115    0.581052 H         1 <1>         0.144500 
     31 H           2.846744   -3.373877    1.867794 H         1 <1>         0.146500 
     32 H           1.181817   -2.046595    3.159223 H         1 <1>         0.165000 
     33 H           2.626538   -1.060323    2.854745 H         1 <1>         0.131900 
     34 H           1.816581    0.025182    0.054378 H         1 <1>         0.155200 
     35 H           2.388361    0.814475    1.553391 H         1 <1>         0.182200 
     36 H          -2.323774   -0.486290   -3.175722 H         1 <1>         0.166100 
     37 H          -4.480829   -1.673589   -3.309029 H         1 <1>         0.149000 
     38 H          -6.349482   -2.844653   -2.198750 H         1 <1>         0.143400 
     39 H          -7.390513   -3.751054   -0.142894 H         1 <1>         0.144900 
     40 H          -6.233887   -3.508178    2.050000 H         1 <1>         0.147700 
     41 H          -4.062163   -2.384734    2.201778 H         1 <1>         0.166000 
     42 H          -2.702521    1.674000   -1.677015 H         1 <1>         0.150200 
     43 H          -3.285367    3.095632   -0.821351 H         1 <1>         0.174600 
     44 H          -1.684178    4.548283   -2.076180 H         1 <1>         0.171500 
     45 H          -2.741873    3.660520   -3.185782 H         1 <1>         0.143800 
     46 H          -1.064089    3.130891   -2.951075 H         1 <1>         0.145400 
     47 H          -0.161571    4.301481    2.323799 H         1 <1>         0.355400 
@<TRIPOS>BOND
     1   14   40 1    
     2   26   47 1    
     3   15   41 1    
     4   15   14 ar   
     5   14   13 ar   
     6   24   25 2    
     7   18   20 2    
     8   16   15 ar   
     9   24   26 ar   
    10   27   26 ar   
    11   13   39 1    
    12   27   28 2    
    13   21   24 ar   
    14   12   13 ar   
    15    5   27 ar   
    16   18   19 2    
    17   17   18 1    
    18   22   43 1    
    19    2   32 1    
    20   17   16 ar   
    21   16   11 ar   
    22   21   22 1    
    23    6   21 ar   
    24    8   17 ar   
    25    3    2 1    
    26    4    3 1    
    27   11   12 ar   
    28   12   38 1    
    29    2   33 1    
    30    6    5 ar   
    31    5    4 1    
    32    2    1 1    
    33   22   42 1    
    34   22   23 1    
    35   11   10 ar   
    36    7    6 1    
    37    4   35 1    
    38    4   34 1    
    39   23   44 1    
    40    8    7 1    
    41    8    9 ar   
    42   23   45 1    
    43   23   46 1    
    44   10    9 ar   
    45   10   37 1    
    46    1   31 1    
    47    1   29 1    
    48    1   30 1    
    49    9   36 1    
@<TRIPOS>SUBSTRUCTURE
     1 ****       40 TEMP              0 ****  ****    0 ROOT 
