#	Name:			SGF-2005-CPB-886-7Q
#	Creating user name:	Administrator
#	Creation time:		Sun Jul 05 16:46:37 2020

#	Modifying user name:	Administrator
#	Modification time:	Sun Jul 05 16:48:40 2020

@<TRIPOS>MOLECULE
SGF-2005-CPB-886-7Q
   52    55     1     0     0
SMALL
MULLIKEN_CHARGES
INVALID_CHARGES
Gaussian 16 #p B3LYP/6-31G* opt
@<TRIPOS>ATOM
      1 C          -3.865140    2.095512   -0.483978 C.3       1 <1>        -0.451300 
      2 C          -2.544110    2.530308   -1.143121 C.3       1 <1>        -0.322500 
      3 C          -1.367655    2.487161   -0.194503 C.ar      1 <1>         0.035400 
      4 C          -0.460321    1.474095   -0.081125 C.ar      1 <1>         0.023500 
      5 S          -0.580536    0.064059   -1.184856 S.3       1 <1>         0.176700 
      6 C          -0.918569   -1.299816   -0.050378 C.ar      1 <1>        -0.185500 
      7 C          -1.640406   -1.102507    1.110110 C.ar      1 <1>        -0.155500 
      8 C          -1.929154   -2.185719    1.970992 C.ar      1 <1>        -0.125600 
      9 C          -1.515928   -3.457275    1.651906 C.ar      1 <1>        -0.190100 
     10 C          -0.782963   -3.701834    0.460991 C.ar      1 <1>         0.145900 
     11 C          -0.351788   -5.010776    0.115630 C.ar      1 <1>        -0.190400 
     12 C           0.367005   -5.243120   -1.033913 C.ar      1 <1>        -0.130100 
     13 C           0.693394   -4.166623   -1.891174 C.ar      1 <1>        -0.133400 
     14 C           0.292023   -2.884207   -1.588861 C.ar      1 <1>        -0.206000 
     15 C          -0.459762   -2.608289   -0.413603 C.ar      1 <1>         0.119600 
     16 N           0.594019    1.506123    0.848119 N.ar      1 <1>        -0.527400 
     17 C           1.737154    0.567609    0.871707 C.3       1 <1>         0.085500 
     18 O           2.912263    1.126470    0.357251 O.3       1 <1>        -0.455700 
     19 C           2.963406    1.261167   -1.058172 C.3       1 <1>        -0.087800 
     20 C           4.247448    1.959632   -1.444231 C.ar      1 <1>         0.118200 
     21 C           4.864605    2.867094   -0.575229 C.ar      1 <1>        -0.164800 
     22 C           6.024402    3.535850   -0.970348 C.ar      1 <1>        -0.135100 
     23 C           6.581556    3.318595   -2.231438 C.ar      1 <1>        -0.194800 
     24 C           5.951535    2.414318   -3.077708 C.ar      1 <1>         0.383000 
     25 F           6.478400    2.183469   -4.300591 F         1 <1>        -0.301300 
     26 C           4.801218    1.728966   -2.708020 C.ar      1 <1>        -0.252600 
     27 C           0.704905    2.542176    1.793598 C.ar      1 <1>         0.796000 
     28 O           1.560310    2.563685    2.659688 O.2       1 <1>        -0.501500 
     29 N          -0.235069    3.545448    1.655699 N.ar      1 <1>        -0.701600 
     30 C          -1.257026    3.642949    0.710980 C.ar      1 <1>         0.609300 
     31 O          -1.999186    4.614953    0.699178 O.2       1 <1>        -0.501900 
     32 H          -4.087748    2.720716    0.386110 H         1 <1>         0.167700 
     33 H          -4.694358    2.195759   -1.193151 H         1 <1>         0.150600 
     34 H          -3.821331    1.048805   -0.162523 H         1 <1>         0.148500 
     35 H          -2.645787    3.566499   -1.481365 H         1 <1>         0.174000 
     36 H          -2.350032    1.913265   -2.022566 H         1 <1>         0.162000 
     37 H          -1.996846   -0.110312    1.367314 H         1 <1>         0.152500 
     38 H          -2.491717   -2.001405    2.881635 H         1 <1>         0.143700 
     39 H          -1.745457   -4.294305    2.306119 H         1 <1>         0.140200 
     40 H          -0.602842   -5.830730    0.784019 H         1 <1>         0.138600 
     41 H           0.689065   -6.249978   -1.284158 H         1 <1>         0.139600 
     42 H           1.268387   -4.352570   -2.793947 H         1 <1>         0.139800 
     43 H           0.557499   -2.069931   -2.255482 H         1 <1>         0.156000 
     44 H           1.946468    0.349460    1.916445 H         1 <1>         0.196700 
     45 H           1.449254   -0.337633    0.338123 H         1 <1>         0.172800 
     46 H           2.901101    0.273059   -1.538966 H         1 <1>         0.142600 
     47 H           2.101386    1.847441   -1.414093 H         1 <1>         0.154600 
     48 H           4.439415    3.031627    0.408433 H         1 <1>         0.163500 
     49 H           6.501646    4.234616   -0.288899 H         1 <1>         0.140800 
     50 H           7.482372    3.826115   -2.560038 H         1 <1>         0.145000 
     51 H           4.356992    1.024741   -3.405607 H         1 <1>         0.136200 
     52 H          -0.154597    4.308939    2.318295 H         1 <1>         0.356400 
@<TRIPOS>BOND
     1   27   28 2    
     2   17   44 1    
     3    9   39 1    
     4    8   38 1    
     5   22   49 1    
     6   21   48 1    
     7   29   27 ar   
     8   16   27 ar   
     9   29   52 1    
    10   17   18 1    
    11   17   45 1    
    12   16   17 1    
    13    8    9 ar   
    14   10    9 ar   
    15    7    8 ar   
    16   18   19 1    
    17   11   40 1    
    18   21   22 ar   
    19   22   23 ar   
    20   20   21 ar   
    21   30   29 ar   
    22    4   16 ar   
    23   10   11 ar   
    24   11   12 ar   
    25   15   10 ar   
    26    7   37 1    
    27    6    7 ar   
    28   23   50 1    
    29   24   23 ar   
    30   19   20 1    
    31   20   26 ar   
    32   19   46 1    
    33   19   47 1    
    34   12   41 1    
    35   13   12 ar   
    36    6   15 ar   
    37   15   14 ar   
    38    5    6 1    
    39   30   31 2    
    40    3   30 ar   
    41    3    4 ar   
    42    4    5 1    
    43   26   24 ar   
    44   24   25 1    
    45   26   51 1    
    46   14   13 ar   
    47   13   42 1    
    48   14   43 1    
    49    2    3 1    
    50    1   32 1    
    51    1   34 1    
    52    1    2 1    
    53    1   33 1    
    54    2   35 1    
    55    2   36 1    
@<TRIPOS>SUBSTRUCTURE
     1 ****       32 TEMP              0 ****  ****    0 ROOT 
