#	Name:			SGF-2005-CPB-886-7K
#	Creating user name:	Administrator
#	Creation time:		Sun Jul 05 16:46:36 2020

#	Modifying user name:	Administrator
#	Modification time:	Sun Jul 05 16:48:40 2020

@<TRIPOS>MOLECULE
SGF-2005-CPB-886-7K
   55    58     1     0     0
SMALL
MULLIKEN_CHARGES
INVALID_CHARGES
Gaussian 16 #p B3LYP/6-31G* opt
@<TRIPOS>ATOM
      1 C          -2.313695    3.788860   -2.204905 C.3       1 <1>        -0.460800 
      2 C          -2.448796    2.558304   -1.284823 C.3       1 <1>        -0.145200 
      3 C          -3.851778    2.483679   -0.647807 C.3       1 <1>        -0.455300 
      4 C          -1.350804    2.501753   -0.229545 C.ar      1 <1>         0.043300 
      5 C          -0.447793    1.482383   -0.094438 C.ar      1 <1>         0.023500 
      6 S          -0.552652    0.031085   -1.148681 S.3       1 <1>         0.205700 
      7 C           0.930864    0.184660   -2.164960 C.ar      1 <1>        -0.195000 
      8 C           1.377187    1.418776   -2.595658 C.ar      1 <1>        -0.153500 
      9 C           2.507620    1.523288   -3.437021 C.ar      1 <1>        -0.125800 
     10 C           3.162926    0.392878   -3.864902 C.ar      1 <1>        -0.191600 
     11 C           2.729417   -0.894298   -3.452371 C.ar      1 <1>         0.146600 
     12 C           3.396590   -2.071929   -3.884792 C.ar      1 <1>        -0.191700 
     13 C           2.984351   -3.316216   -3.467780 C.ar      1 <1>        -0.130200 
     14 C           1.885502   -3.436591   -2.585374 C.ar      1 <1>        -0.135100 
     15 C           1.212639   -2.317798   -2.146727 C.ar      1 <1>        -0.205500 
     16 C           1.601115   -1.016612   -2.570338 C.ar      1 <1>         0.113800 
     17 N           0.553225    1.475167    0.893988 N.ar      1 <1>        -0.516800 
     18 C           1.408070    0.295414    1.160529 C.3       1 <1>         0.057300 
     19 O           0.737145   -0.742686    1.813747 O.3       1 <1>        -0.456500 
     20 C           0.498570   -0.531363    3.208661 C.3       1 <1>        -0.102100 
     21 C           0.054082   -1.828829    3.841179 C.ar      1 <1>         0.133700 
     22 C           0.622721   -3.048560    3.454304 C.ar      1 <1>        -0.159800 
     23 C           0.239890   -4.235426    4.078292 C.ar      1 <1>        -0.132500 
     24 C          -0.710349   -4.218165    5.101954 C.ar      1 <1>        -0.127300 
     25 C          -1.281222   -3.006427    5.492806 C.ar      1 <1>        -0.128800 
     26 C          -0.903934   -1.820476    4.860417 C.ar      1 <1>        -0.181300 
     27 C           0.707456    2.542446    1.789320 C.ar      1 <1>         0.788600 
     28 O           1.558931    2.576529    2.664620 O.2       1 <1>        -0.518900 
     29 N          -0.199053    3.565917    1.611284 N.ar      1 <1>        -0.696600 
     30 C          -1.265040    3.633610    0.711055 C.ar      1 <1>         0.607500 
     31 O          -2.016945    4.598787    0.745351 O.2       1 <1>        -0.501400 
     32 H          -3.077668    3.744719   -2.989867 H         1 <1>         0.142800 
     33 H          -2.444062    4.719214   -1.647981 H         1 <1>         0.183500 
     34 H          -1.333892    3.810781   -2.696875 H         1 <1>         0.136400 
     35 H          -2.330172    1.672064   -1.912504 H         1 <1>         0.163100 
     36 H          -4.614589    2.459316   -1.434897 H         1 <1>         0.142200 
     37 H          -3.963495    1.575563   -0.044139 H         1 <1>         0.141300 
     38 H          -4.041843    3.350788   -0.010661 H         1 <1>         0.180000 
     39 H           0.854076    2.320293   -2.292501 H         1 <1>         0.150800 
     40 H           2.841821    2.506892   -3.754549 H         1 <1>         0.140700 
     41 H           4.022895    0.468348   -4.525425 H         1 <1>         0.137900 
     42 H           4.246384   -1.968092   -4.555086 H         1 <1>         0.136000 
     43 H           3.504743   -4.207325   -3.807737 H         1 <1>         0.136900 
     44 H           1.572857   -4.420031   -2.245737 H         1 <1>         0.138700 
     45 H           0.382454   -2.426322   -1.456433 H         1 <1>         0.170100 
     46 H           2.246395    0.674784    1.748137 H         1 <1>         0.191000 
     47 H           1.759466   -0.106147    0.214514 H         1 <1>         0.189400 
     48 H          -0.268723    0.241595    3.355825 H         1 <1>         0.140500 
     49 H           1.421221   -0.161114    3.681463 H         1 <1>         0.162700 
     50 H           1.354573   -3.060913    2.652682 H         1 <1>         0.139000 
     51 H           0.684900   -5.176617    3.765380 H         1 <1>         0.128700 
     52 H          -1.006909   -5.143813    5.588078 H         1 <1>         0.128700 
     53 H          -2.027255   -2.983453    6.282761 H         1 <1>         0.130000 
     54 H          -1.360228   -0.879723    5.161466 H         1 <1>         0.125400 
     55 H          -0.114856    4.338802    2.262461 H         1 <1>         0.355900 
@<TRIPOS>BOND
     1    3   36 1    
     2    3   37 1    
     3    3   38 1    
     4    2    3 1    
     5    1   32 1    
     6    2   35 1    
     7    2    1 1    
     8    4    2 1    
     9   14   44 1    
    10   15   45 1    
    11   24   52 1    
    12    1   33 1    
    13    1   34 1    
    14    6    7 1    
    15    5    6 1    
    16   25   53 1    
    17   15   14 ar   
    18   14   13 ar   
    19   16   15 ar   
    20   25   24 ar   
    21   23   24 ar   
    22   26   25 ar   
    23   23   51 1    
    24   22   23 ar   
    25    5    4 ar   
    26    4   30 ar   
    27   13   43 1    
    28   12   13 ar   
    29    7   16 ar   
    30   16   11 ar   
    31   26   54 1    
    32   21   26 ar   
    33    7    8 ar   
    34   17    5 ar   
    35   21   22 ar   
    36   22   50 1    
    37   30   31 2    
    38   20   21 1    
    39   11   12 ar   
    40   12   42 1    
    41   30   29 ar   
    42   11   10 ar   
    43    8   39 1    
    44    8    9 ar   
    45   19   20 1    
    46   18   19 1    
    47   20   48 1    
    48   20   49 1    
    49   17   18 1    
    50   17   27 ar   
    51   18   47 1    
    52   10    9 ar   
    53   10   41 1    
    54    9   40 1    
    55   18   46 1    
    56   29   27 ar   
    57   29   55 1    
    58   27   28 2    
@<TRIPOS>SUBSTRUCTURE
     1 ****       44 TEMP              0 ****  ****    0 ROOT 
