#	Name:			SGF-2005-CPB-886-7U
#	Creating user name:	Administrator
#	Creation time:		Sun Jul 05 16:46:37 2020

#	Modifying user name:	Administrator
#	Modification time:	Sun Jul 05 16:48:40 2020

@<TRIPOS>MOLECULE
SGF-2005-CPB-886-7U
   55    58     1     0     0
SMALL
MULLIKEN_CHARGES
INVALID_CHARGES
Gaussian 16 #p B3LYP/6-31G* opt
@<TRIPOS>ATOM
      1 C          -2.315798    3.671556   -2.247953 C.3       1 <1>        -0.455400 
      2 C          -2.496501    2.521825   -1.235550 C.3       1 <1>        -0.146100 
      3 C          -3.885283    2.573286   -0.566409 C.3       1 <1>        -0.459900 
      4 C          -1.365633    2.489632   -0.214754 C.ar      1 <1>         0.044400 
      5 C          -0.446367    1.484127   -0.099181 C.ar      1 <1>         0.027800 
      6 S          -0.444338    0.116468   -1.262819 S.3       1 <1>         0.203000 
      7 C          -0.930054   -1.277606   -0.225334 C.ar      1 <1>        -0.189300 
      8 C          -1.810035   -1.117485    0.826898 C.ar      1 <1>        -0.155000 
      9 C          -2.211168   -2.225885    1.606357 C.ar      1 <1>        -0.125300 
     10 C          -1.751454   -3.487530    1.311246 C.ar      1 <1>        -0.191800 
     11 C          -0.855898   -3.695254    0.229602 C.ar      1 <1>         0.146400 
     12 C          -0.372514   -4.992673   -0.089894 C.ar      1 <1>        -0.191200 
     13 C           0.504790   -5.188793   -1.131182 C.ar      1 <1>        -0.130600 
     14 C           0.945469   -4.085824   -1.899222 C.ar      1 <1>        -0.135700 
     15 C           0.498033   -2.813539   -1.618996 C.ar      1 <1>        -0.210100 
     16 C          -0.417592   -2.575250   -0.556857 C.ar      1 <1>         0.115400 
     17 N           0.566556    1.486521    0.878749 N.ar      1 <1>        -0.524500 
     18 C           1.688831    0.562123    0.849518 C.3       1 <1>         0.089800 
     19 O           2.609838    1.023173   -0.116251 O.3       1 <1>        -0.470500 
     20 C           3.774335    0.206632   -0.183603 C.3       1 <1>        -0.093600 
     21 C           4.783466    0.853309   -1.100565 C.ar      1 <1>         0.138600 
     22 C           5.052413    2.225087   -1.000406 C.ar      1 <1>        -0.161100 
     23 C           6.008107    2.826551   -1.816346 C.ar      1 <1>        -0.198700 
     24 C           6.699401    2.037316   -2.729930 C.ar      1 <1>         0.380400 
     25 F           7.628743    2.614043   -3.521711 F         1 <1>        -0.298300 
     26 C           6.458740    0.675299   -2.855126 C.ar      1 <1>        -0.196300 
     27 C           5.490652    0.091866   -2.036066 C.ar      1 <1>        -0.184400 
     28 C           0.703595    2.541487    1.797213 C.ar      1 <1>         0.798500 
     29 O           1.581079    2.591425    2.641441 O.2       1 <1>        -0.507800 
     30 N          -0.253038    3.525559    1.668617 N.ar      1 <1>        -0.698900 
     31 C          -1.262777    3.634453    0.710271 C.ar      1 <1>         0.610000 
     32 O          -1.983438    4.623388    0.709278 O.2       1 <1>        -0.499900 
     33 H          -3.106926    3.624491   -3.005547 H         1 <1>         0.141900 
     34 H          -2.369810    4.644324   -1.753323 H         1 <1>         0.180800 
     35 H          -1.351644    3.595628   -2.763695 H         1 <1>         0.143100 
     36 H          -2.443863    1.585472   -1.795797 H         1 <1>         0.162400 
     37 H          -4.664447    2.516853   -1.335609 H         1 <1>         0.143000 
     38 H          -4.029031    1.725633    0.114355 H         1 <1>         0.135600 
     39 H          -4.022427    3.498966   -0.003386 H         1 <1>         0.183700 
     40 H          -2.203934   -0.133201    1.059456 H         1 <1>         0.151300 
     41 H          -2.898188   -2.069778    2.433211 H         1 <1>         0.141900 
     42 H          -2.067845   -4.344072    1.900787 H         1 <1>         0.138500 
     43 H          -0.712541   -5.833139    0.510191 H         1 <1>         0.137300 
     44 H           0.864047   -6.187446   -1.363499 H         1 <1>         0.137900 
     45 H           1.644512   -4.243488   -2.715953 H         1 <1>         0.137800 
     46 H           0.851839   -1.977864   -2.214362 H         1 <1>         0.163200 
     47 H           1.333816   -0.443424    0.612690 H         1 <1>         0.165400 
     48 H           2.130245    0.571351    1.849874 H         1 <1>         0.184900 
     49 H           4.196140    0.088658    0.829826 H         1 <1>         0.145400 
     50 H           3.516711   -0.801633   -0.545657 H         1 <1>         0.136600 
     51 H           4.496104    2.824061   -0.286226 H         1 <1>         0.156400 
     52 H           6.223918    3.888224   -1.754156 H         1 <1>         0.149100 
     53 H           7.013652    0.096049   -3.585779 H         1 <1>         0.146000 
     54 H           5.285381   -0.971768   -2.131498 H         1 <1>         0.131300 
     55 H          -0.165853    4.302365    2.314562 H         1 <1>         0.356700 
@<TRIPOS>BOND
     1   28   29 2    
     2   18   48 1    
     3   20   49 1    
     4   30   55 1    
     5   30   28 ar   
     6   17   28 ar   
     7    9   41 1    
     8   10   42 1    
     9   31   30 ar   
    10   18   47 1    
    11   17   18 1    
    12   18   19 1    
    13    9   10 ar   
    14    8    9 ar   
    15   11   10 ar   
    16    5   17 ar   
    17   19   20 1    
    18   20   50 1    
    19   20   21 1    
    20   22   51 1    
    21   12   43 1    
    22    8   40 1    
    23   21   22 ar   
    24   22   23 ar   
    25    7    8 ar   
    26   21   27 ar   
    27   11   12 ar   
    28   16   11 ar   
    29   31   32 2    
    30    4   31 ar   
    31   12   13 ar   
    32   23   52 1    
    33   23   24 ar   
    34    4    5 ar   
    35    5    6 1    
    36   27   54 1    
    37   27   26 ar   
    38    7   16 ar   
    39    6    7 1    
    40   16   15 ar   
    41   13   44 1    
    42   14   13 ar   
    43    2    4 1    
    44   26   24 ar   
    45   24   25 1    
    46   26   53 1    
    47    3   38 1    
    48   15   14 ar   
    49   15   46 1    
    50   14   45 1    
    51    3   39 1    
    52    3    2 1    
    53    3   37 1    
    54    2   36 1    
    55    2    1 1    
    56    1   34 1    
    57    1   35 1    
    58    1   33 1    
@<TRIPOS>SUBSTRUCTURE
     1 ****       38 TEMP              0 ****  ****    0 ROOT 
