#	Name:			SGF-2005-CPB-886-8E
#	Creating user name:	Administrator
#	Creation time:		Sun Jul 05 16:46:38 2020

#	Modifying user name:	Administrator
#	Modification time:	Sun Jul 05 16:48:40 2020

@<TRIPOS>MOLECULE
SGF-2005-CPB-886-8E
   48    50     1     0     0
SMALL
MULLIKEN_CHARGES
INVALID_CHARGES
Gaussian 16 #p B3LYP/6-31G* opt
@<TRIPOS>ATOM
      1 C           4.773219    0.508691    1.274967 C.3       1 <1>        -0.452800 
      2 C           3.787525    1.378454    0.504127 C.3       1 <1>        -0.055500 
      3 O           2.651610    0.619189    0.043623 O.3       1 <1>        -0.456700 
      4 C           1.614261    0.441419    0.968776 C.3       1 <1>         0.064700 
      5 N           0.570375    1.488606    0.877003 N.ar      1 <1>        -0.517300 
      6 C          -0.444864    1.484183   -0.099444 C.ar      1 <1>         0.022400 
      7 S          -0.522762    0.005776   -1.141242 S.3       1 <1>         0.149600 
      8 C          -0.025379    0.617188   -2.758430 C.ar      1 <1>        -0.102800 
      9 C           1.227713    1.261181   -2.945097 C.ar      1 <1>        -0.149400 
     10 C           1.607877    1.655695   -4.205905 C.ar      1 <1>        -0.187200 
     11 C           0.785877    1.408745   -5.339743 C.ar      1 <1>         0.137600 
     12 C           1.162531    1.796755   -6.652266 C.ar      1 <1>        -0.190400 
     13 C           0.342360    1.534556   -7.727320 C.ar      1 <1>        -0.132600 
     14 C          -0.894607    0.871036   -7.537964 C.ar      1 <1>        -0.135000 
     15 C          -1.288759    0.481584   -6.277548 C.ar      1 <1>        -0.187600 
     16 C          -0.464683    0.736987   -5.148815 C.ar      1 <1>         0.141400 
     17 C          -0.850340    0.360454   -3.834088 C.ar      1 <1>        -0.215700 
     18 C          -1.367678    2.487755   -0.208647 C.ar      1 <1>         0.061100 
     19 C          -2.517111    2.500677   -1.206787 C.3       1 <1>        -0.143500 
     20 C          -3.888820    2.514003   -0.501075 C.3       1 <1>        -0.457100 
     21 C          -2.388256    3.658766   -2.217487 C.3       1 <1>        -0.456700 
     22 C          -1.264199    3.634050    0.708565 C.ar      1 <1>         0.607200 
     23 O          -1.987995    4.621316    0.715683 O.2       1 <1>        -0.503400 
     24 N          -0.238931    3.534697    1.654070 N.ar      1 <1>        -0.696200 
     25 C           0.700134    2.539281    1.794098 C.ar      1 <1>         0.793400 
     26 O           1.573135    2.586704    2.650306 O.2       1 <1>        -0.524400 
     27 H           5.658399    1.094587    1.549281 H         1 <1>         0.149100 
     28 H           5.093673   -0.342523    0.665559 H         1 <1>         0.158500 
     29 H           4.330627    0.124705    2.200846 H         1 <1>         0.156200 
     30 H           3.455195    2.226543    1.111195 H         1 <1>         0.170600 
     31 H           4.253233    1.766608   -0.407172 H         1 <1>         0.143900 
     32 H           1.968807    0.472247    1.998852 H         1 <1>         0.187400 
     33 H           1.151405   -0.517423    0.753166 H         1 <1>         0.187100 
     34 H           1.877614    1.411103   -2.089834 H         1 <1>         0.177100 
     35 H           2.564161    2.152455   -4.352423 H         1 <1>         0.136700 
     36 H           2.112780    2.305702   -6.795370 H         1 <1>         0.134500 
     37 H           0.641809    1.836601   -8.727051 H         1 <1>         0.135200 
     38 H          -1.532839    0.670253   -8.393973 H         1 <1>         0.135400 
     39 H          -2.238158   -0.027306   -6.129076 H         1 <1>         0.135100 
     40 H          -1.808665   -0.130183   -3.685997 H         1 <1>         0.149000 
     41 H          -2.459067    1.568355   -1.771437 H         1 <1>         0.152300 
     42 H          -4.687512    2.447854   -1.249287 H         1 <1>         0.138900 
     43 H          -3.991937    1.657781    0.175720 H         1 <1>         0.139000 
     44 H          -4.030897    3.431904    0.073586 H         1 <1>         0.181500 
     45 H          -2.459640    4.626702   -1.715877 H         1 <1>         0.178700 
     46 H          -1.433770    3.609884   -2.752798 H         1 <1>         0.147000 
     47 H          -3.193095    3.593032   -2.959084 H         1 <1>         0.138100 
     48 H          -0.154414    4.308432    2.304084 H         1 <1>         0.355400 
@<TRIPOS>BOND
     1   12   36 1    
     2   10   35 1    
     3   21   45 1    
     4   24   48 1    
     5   13   37 1    
     6   22   23 2    
     7   21   46 1    
     8   12   13 ar   
     9   11   12 ar   
    10    2   31 1    
    11    2   30 1    
    12   14   13 ar   
    13   21   47 1    
    14   19   21 1    
    15   22   24 ar   
    16   25   24 ar   
    17   10   11 ar   
    18    9   10 ar   
    19    1   27 1    
    20   18   22 ar   
    21    2    1 1    
    22    3    2 1    
    23   16   11 ar   
    24   25   26 2    
    25    9   34 1    
    26    5   25 ar   
    27    8    9 ar   
    28    1   28 1    
    29    1   29 1    
    30   18   19 1    
    31    6   18 ar   
    32   14   38 1    
    33   15   14 ar   
    34   20   44 1    
    35   19   20 1    
    36   19   41 1    
    37    4    3 1    
    38   16   15 ar   
    39   17   16 ar   
    40    6    5 ar   
    41    5    4 1    
    42    7    6 1    
    43   15   39 1    
    44    8   17 ar   
    45    8    7 1    
    46   20   42 1    
    47   20   43 1    
    48    4   32 1    
    49    4   33 1    
    50   17   40 1    
@<TRIPOS>SUBSTRUCTURE
     1 ****       35 TEMP              0 ****  ****    0 ROOT 
