#	Name:			SGF-2005-CPB-886-7D
#	Creating user name:	Administrator
#	Creation time:		Sun Jul 05 16:46:35 2020

#	Modifying user name:	Administrator
#	Modification time:	Sun Jul 05 16:48:40 2020

@<TRIPOS>MOLECULE
SGF-2005-CPB-886-7D
   45    47     1     0     0
SMALL
MULLIKEN_CHARGES
INVALID_CHARGES
Gaussian 16 #p B3LYP/6-31G* opt
@<TRIPOS>ATOM
      1 C           4.601361   -0.260304    0.843878 C.3       1 <1>        -0.461600 
      2 C           3.540305   -0.240843   -0.253793 C.3       1 <1>        -0.027100 
      3 O           2.551521    0.773746   -0.069738 O.3       1 <1>        -0.464000 
      4 C           1.605429    0.475178    0.937908 C.3       1 <1>         0.087200 
      5 N           0.553611    1.478613    0.887877 N.ar      1 <1>        -0.533600 
      6 C          -0.448441    1.485431   -0.103280 C.ar      1 <1>         0.045000 
      7 S          -0.541460    0.007564   -1.131098 S.3       1 <1>         0.156200 
      8 C          -0.121028    0.622445   -2.775350 C.ar      1 <1>        -0.179800 
      9 C           1.010534    1.394361   -2.956843 C.ar      1 <1>        -0.159300 
     10 C           1.361267    1.855529   -4.245636 C.ar      1 <1>        -0.130000 
     11 C           0.601855    1.510769   -5.339586 C.ar      1 <1>        -0.189500 
     12 C          -0.550722    0.695728   -5.194121 C.ar      1 <1>         0.143800 
     13 C          -1.336739    0.322683   -6.317819 C.ar      1 <1>        -0.190700 
     14 C          -2.458987   -0.459012   -6.172731 C.ar      1 <1>        -0.131400 
     15 C          -2.849713   -0.898368   -4.886008 C.ar      1 <1>        -0.134800 
     16 C          -2.112437   -0.557048   -3.774115 C.ar      1 <1>        -0.203600 
     17 C          -0.940905    0.241958   -3.886709 C.ar      1 <1>         0.122900 
     18 C          -1.354055    2.498931   -0.213105 C.ar      1 <1>         0.054000 
     19 C          -2.497342    2.566082   -1.195918 C.3       1 <1>        -0.328000 
     20 C          -2.273395    3.582112   -2.332205 C.3       1 <1>        -0.453800 
     21 C          -1.257143    3.638689    0.710212 C.ar      1 <1>         0.607900 
     22 O          -2.010880    4.602251    0.719055 O.2       1 <1>        -0.503200 
     23 N          -0.222252    3.550579    1.644079 N.ar      1 <1>        -0.700800 
     24 C           0.705691    2.542862    1.795402 C.ar      1 <1>         0.796300 
     25 O           1.573446    2.579236    2.651395 O.2       1 <1>        -0.509700 
     26 H           5.382527   -0.988175    0.595490 H         1 <1>         0.148800 
     27 H           5.065126    0.726300    0.942974 H         1 <1>         0.168800 
     28 H           4.184018   -0.540435    1.817042 H         1 <1>         0.156000 
     29 H           3.998671   -0.012216   -1.220633 H         1 <1>         0.152700 
     30 H           3.050784   -1.223726   -0.343067 H         1 <1>         0.134000 
     31 H           1.175642   -0.518711    0.779474 H         1 <1>         0.159000 
     32 H           2.041479    0.541976    1.935279 H         1 <1>         0.190400 
     33 H           1.636489    1.636534   -2.104492 H         1 <1>         0.183200 
     34 H           2.246835    2.473676   -4.363940 H         1 <1>         0.139400 
     35 H           0.876572    1.853508   -6.334117 H         1 <1>         0.136700 
     36 H          -1.030190    0.670756   -7.301210 H         1 <1>         0.135000 
     37 H          -3.049339   -0.736314   -7.041496 H         1 <1>         0.135600 
     38 H          -3.742189   -1.507963   -4.773857 H         1 <1>         0.136300 
     39 H          -2.427878   -0.896885   -2.793415 H         1 <1>         0.157900 
     40 H          -2.687266    1.574485   -1.612822 H         1 <1>         0.162100 
     41 H          -3.391789    2.866790   -0.637769 H         1 <1>         0.165000 
     42 H          -2.143706    4.588183   -1.924471 H         1 <1>         0.172200 
     43 H          -1.391762    3.327477   -2.928151 H         1 <1>         0.154500 
     44 H          -3.142622    3.593750   -2.999322 H         1 <1>         0.144600 
     45 H          -0.136358    4.320877    2.297652 H         1 <1>         0.355500 
@<TRIPOS>BOND
     1   15   38 1    
     2   16   39 1    
     3    4   31 1    
     4   16   15 ar   
     5   15   14 ar   
     6   17   16 ar   
     7    6    7 1    
     8    7    8 1    
     9   19   40 1    
    10    4   32 1    
    11    2   30 1    
    12    4    5 1    
    13    3    4 1    
    14   14   37 1    
    15   19   41 1    
    16    1   28 1    
    17   14   13 ar   
    18    5    6 ar   
    19    6   18 ar   
    20    5   24 ar   
    21   18   19 1    
    22   19   20 1    
    23    8   17 ar   
    24   17   12 ar   
    25   18   21 ar   
    26    8    9 ar   
    27    1   26 1    
    28   24   25 2    
    29   24   23 ar   
    30    2    1 1    
    31    2    3 1    
    32    2   29 1    
    33    1   27 1    
    34   21   23 ar   
    35   21   22 2    
    36   23   45 1    
    37   13   12 ar   
    38   13   36 1    
    39   12   11 ar   
    40   20   44 1    
    41   20   43 1    
    42   20   42 1    
    43    9   33 1    
    44    9   10 ar   
    45   11   10 ar   
    46   11   35 1    
    47   10   34 1    
@<TRIPOS>SUBSTRUCTURE
     1 ****       30 TEMP              0 ****  ****    0 ROOT 
