#	Name:			SGF-2005-CPB-886-7M
#	Creating user name:	Administrator
#	Creation time:		Sun Jul 05 16:46:36 2020

#	Modifying user name:	Administrator
#	Modification time:	Sun Jul 05 16:48:40 2020

@<TRIPOS>MOLECULE
SGF-2005-CPB-886-7M
   48    50     1     0     0
SMALL
MULLIKEN_CHARGES
INVALID_CHARGES
Gaussian 16 #p B3LYP/6-31G* opt
@<TRIPOS>ATOM
      1 C          -3.250754    3.522446   -3.464380 C.3       1 <1>        -0.444000 
      2 C          -2.083686    3.388830   -2.482366 C.3       1 <1>        -0.257300 
      3 C          -2.469995    2.589926   -1.220156 C.3       1 <1>        -0.328300 
      4 C          -1.355771    2.498137   -0.205099 C.ar      1 <1>         0.019700 
      5 C          -0.448407    1.479295   -0.096530 C.ar      1 <1>         0.048900 
      6 S          -0.485808    0.198146   -1.358978 S.3       1 <1>         0.200700 
      7 C          -0.539015   -1.404390   -0.538413 C.ar      1 <1>        -0.227700 
      8 C           0.460562   -2.293509   -0.893216 C.ar      1 <1>        -0.147600 
      9 C           0.447236   -3.625515   -0.420503 C.ar      1 <1>        -0.127200 
     10 C          -0.554849   -4.047737    0.420306 C.ar      1 <1>        -0.187100 
     11 C          -1.598474   -3.166704    0.810442 C.ar      1 <1>         0.145500 
     12 C          -2.641298   -3.600323    1.672314 C.ar      1 <1>        -0.191400 
     13 C          -3.665372   -2.753900    2.028595 C.ar      1 <1>        -0.129900 
     14 C          -3.691231   -1.431215    1.528833 C.ar      1 <1>        -0.139600 
     15 C          -2.694267   -0.975493    0.694493 C.ar      1 <1>        -0.194300 
     16 C          -1.615328   -1.817483    0.314545 C.ar      1 <1>         0.136700 
     17 N           0.567994    1.483637    0.873701 N.ar      1 <1>        -0.524500 
     18 C           1.633532    0.456117    0.940154 C.3       1 <1>         0.046500 
     19 O           2.536669    0.504524   -0.127001 O.3       1 <1>        -0.452800 
     20 C           3.440221    1.618613   -0.150054 C.3       1 <1>        -0.031900 
     21 C           4.505711    1.568863    0.940190 C.3       1 <1>        -0.474500 
     22 C           0.699061    2.537583    1.793071 C.ar      1 <1>         0.785100 
     23 O           1.576359    2.587693    2.643522 O.2       1 <1>        -0.519700 
     24 N          -0.242783    3.534877    1.664335 N.ar      1 <1>        -0.697100 
     25 C          -1.260232    3.638877    0.713369 C.ar      1 <1>         0.608400 
     26 O          -1.996244    4.616491    0.705268 O.2       1 <1>        -0.507800 
     27 H          -2.957080    4.092915   -4.352713 H         1 <1>         0.144700 
     28 H          -4.099188    4.040109   -3.000820 H         1 <1>         0.148600 
     29 H          -3.603013    2.539320   -3.800610 H         1 <1>         0.142800 
     30 H          -1.235541    2.896947   -2.977398 H         1 <1>         0.141000 
     31 H          -1.739690    4.384274   -2.176931 H         1 <1>         0.154400 
     32 H          -3.313216    3.096560   -0.737918 H         1 <1>         0.164900 
     33 H          -2.798727    1.588684   -1.514470 H         1 <1>         0.159500 
     34 H           1.274820   -1.951685   -1.524193 H         1 <1>         0.170400 
     35 H           1.242720   -4.303552   -0.715849 H         1 <1>         0.142400 
     36 H          -0.565544   -5.066987    0.798629 H         1 <1>         0.139900 
     37 H          -2.614954   -4.622047    2.043643 H         1 <1>         0.136300 
     38 H          -4.457006   -3.098856    2.687697 H         1 <1>         0.137900 
     39 H          -4.507232   -0.768394    1.803543 H         1 <1>         0.140200 
     40 H          -2.730310    0.040230    0.319989 H         1 <1>         0.161500 
     41 H           1.176089   -0.527601    0.904574 H         1 <1>         0.186300 
     42 H           2.110488    0.610054    1.907333 H         1 <1>         0.194900 
     43 H           2.878359    2.561708   -0.099254 H         1 <1>         0.137800 
     44 H           3.901203    1.564929   -1.140778 H         1 <1>         0.150600 
     45 H           5.034803    0.610082    0.917703 H         1 <1>         0.152900 
     46 H           5.236825    2.369003    0.774741 H         1 <1>         0.147600 
     47 H           4.074180    1.718513    1.934263 H         1 <1>         0.181700 
     48 H          -0.151534    4.304673    2.317722 H         1 <1>         0.354900 
@<TRIPOS>BOND
     1   13   38 1    
     2   24   48 1    
     3   22   23 2    
     4   14   39 1    
     5   14   13 ar   
     6   12   13 ar   
     7   24   22 ar   
     8   25   24 ar   
     9   15   14 ar   
    10   17   22 ar   
    11   25   26 2    
    12   12   37 1    
    13    4   25 ar   
    14   11   12 ar   
    15   18   42 1    
    16   21   47 1    
    17   15   40 1    
    18   16   15 ar   
    19   17   18 1    
    20    5   17 ar   
    21   18   41 1    
    22   18   19 1    
    23   16   11 ar   
    24   11   10 ar   
    25    3   32 1    
    26    4    5 ar   
    27    3    4 1    
    28    7   16 ar   
    29    5    6 1    
    30   21   46 1    
    31   21   45 1    
    32   20   21 1    
    33   10   36 1    
    34    3   33 1    
    35    2    3 1    
    36    9   10 ar   
    37   20   43 1    
    38   19   20 1    
    39   20   44 1    
    40    6    7 1    
    41    7    8 ar   
    42    2   31 1    
    43    8    9 ar   
    44    9   35 1    
    45    1   28 1    
    46    2    1 1    
    47    2   30 1    
    48    8   34 1    
    49    1   29 1    
    50    1   27 1    
@<TRIPOS>SUBSTRUCTURE
     1 ****       38 TEMP              0 ****  ****    0 ROOT 
