#	Name:			SGF-2005-CPB-886-7S
#	Creating user name:	Administrator
#	Creation time:		Sun Jul 05 16:46:37 2020

#	Modifying user name:	Administrator
#	Modification time:	Sun Jul 05 16:48:40 2020

@<TRIPOS>MOLECULE
SGF-2005-CPB-886-7S
   61    64     1     0     0
SMALL
MULLIKEN_CHARGES
INVALID_CHARGES
Gaussian 16 #p B3LYP/6-31G* opt
@<TRIPOS>ATOM
      1 O           1.572394    2.583034    2.652716 O.2       1 <1>        -0.509700 
      2 C           0.704801    2.543536    1.796861 C.ar      1 <1>         0.797600 
      3 N          -0.231523    3.541530    1.646998 N.ar      1 <1>        -0.699700 
      4 N           0.561987    1.484344    0.882926 N.ar      1 <1>        -0.533700 
      5 C           1.628820    0.496887    0.929962 C.3       1 <1>         0.096400 
      6 O           2.611451    0.853986   -0.018491 O.3       1 <1>        -0.477800 
      7 C           3.717010   -0.048022   -0.024690 C.3       1 <1>        -0.017800 
      8 C           4.768303    0.470180   -1.010081 C.3       1 <1>        -0.107100 
      9 C           5.329793    1.851757   -0.607263 C.3       1 <1>        -0.267000 
     10 C           6.293349    1.786259    0.589707 C.3       1 <1>        -0.265800 
     11 C           7.427844    0.778614    0.348824 C.3       1 <1>        -0.254300 
     12 C           6.876078   -0.612294    0.000096 C.3       1 <1>        -0.262100 
     13 C           5.914139   -0.548790   -1.199216 C.3       1 <1>        -0.272800 
     14 C          -0.442576    1.487762   -0.105713 C.ar      1 <1>         0.029800 
     15 S          -0.489862    0.020639   -1.156727 S.3       1 <1>         0.158800 
     16 C          -0.067132    0.676574   -2.784789 C.ar      1 <1>        -0.178200 
     17 C          -0.842568    0.265880   -3.917201 C.ar      1 <1>         0.122200 
     18 C          -1.973492   -0.593257   -3.836798 C.ar      1 <1>        -0.202600 
     19 C          -2.667860   -0.962105   -4.967304 C.ar      1 <1>        -0.135000 
     20 C          -2.272303   -0.491560   -6.241398 C.ar      1 <1>        -0.131400 
     21 C          -1.189388    0.348453   -6.355409 C.ar      1 <1>        -0.190800 
     22 C          -0.448251    0.751576   -5.211743 C.ar      1 <1>         0.143900 
     23 C           0.663109    1.626553   -5.325118 C.ar      1 <1>        -0.189300 
     24 C           1.378972    2.000501   -4.211730 C.ar      1 <1>        -0.131200 
     25 C           1.025143    1.508857   -2.934950 C.ar      1 <1>        -0.158100 
     26 C          -1.368590    2.487279   -0.209899 C.ar      1 <1>         0.060400 
     27 C          -2.519373    2.498607   -1.206244 C.3       1 <1>        -0.146200 
     28 C          -2.405807    3.664911   -2.209261 C.3       1 <1>        -0.458000 
     29 C          -3.888665    2.496069   -0.495540 C.3       1 <1>        -0.456900 
     30 C          -1.263297    3.633130    0.708494 C.ar      1 <1>         0.608300 
     31 O          -1.993218    4.615976    0.719251 O.2       1 <1>        -0.503500 
     32 H          -0.147187    4.317806    2.293838 H         1 <1>         0.355500 
     33 H           1.220718   -0.494984    0.717121 H         1 <1>         0.161900 
     34 H           2.036883    0.524747    1.943216 H         1 <1>         0.184700 
     35 H           4.122685   -0.135476    0.994763 H         1 <1>         0.132100 
     36 H           3.376206   -1.050745   -0.331280 H         1 <1>         0.128700 
     37 H           4.247473    0.578222   -1.971583 H         1 <1>         0.133700 
     38 H           4.501533    2.535593   -0.392274 H         1 <1>         0.153000 
     39 H           5.868746    2.266907   -1.471233 H         1 <1>         0.124800 
     40 H           5.743020    1.505710    1.498820 H         1 <1>         0.137700 
     41 H           6.706348    2.784337    0.783018 H         1 <1>         0.134200 
     42 H           8.080237    0.719229    1.229404 H         1 <1>         0.131200 
     43 H           8.055773    1.134014   -0.482033 H         1 <1>         0.126500 
     44 H           7.698809   -1.303052   -0.224931 H         1 <1>         0.132800 
     45 H           6.359438   -1.028635    0.876732 H         1 <1>         0.129800 
     46 H           5.503618   -1.545066   -1.412742 H         1 <1>         0.129100 
     47 H           6.486106   -0.254862   -2.090625 H         1 <1>         0.133800 
     48 H          -2.292905   -0.956905   -2.865766 H         1 <1>         0.158700 
     49 H          -3.529904   -1.617647   -4.879567 H         1 <1>         0.136300 
     50 H          -2.828437   -0.791168   -7.125336 H         1 <1>         0.135600 
     51 H          -0.880292    0.721111   -7.329053 H         1 <1>         0.135100 
     52 H           0.941349    1.992254   -6.310445 H         1 <1>         0.136600 
     53 H           2.233496    2.664948   -4.304773 H         1 <1>         0.139700 
     54 H           1.623319    1.771792   -2.069334 H         1 <1>         0.181300 
     55 H          -2.457883    1.571440   -1.779307 H         1 <1>         0.155300 
     56 H          -3.209560    3.591744   -2.951236 H         1 <1>         0.139800 
     57 H          -2.490364    4.628337   -1.701048 H         1 <1>         0.178500 
     58 H          -1.450729    3.632760   -2.744638 H         1 <1>         0.146400 
     59 H          -3.982656    1.635060    0.176511 H         1 <1>         0.137600 
     60 H          -4.035363    3.409336    0.085572 H         1 <1>         0.181100 
     61 H          -4.689407    2.428521   -1.241477 H         1 <1>         0.140000 
@<TRIPOS>BOND
     1   24   53 1    
     2   23   52 1    
     3   28   57 1    
     4    9   39 1    
     5   28   58 1    
     6   24   23 ar   
     7   25   24 ar   
     8   10   41 1    
     9   22   23 ar   
    10   28   56 1    
    11   27   28 1    
    12    9   38 1    
    13   21   51 1    
    14   30   31 2    
    15   11   43 1    
    16    9   10 1    
    17    8    9 1    
    18   10   11 1    
    19   10   40 1    
    20    3   32 1    
    21   25   54 1    
    22   16   25 ar   
    23   22   21 ar   
    24   17   22 ar   
    25    3   30 ar   
    26   26   30 ar   
    27   21   20 ar   
    28   11   42 1    
    29   12   11 1    
    30    2    3 ar   
    31    8   37 1    
    32   13   47 1    
    33   26   27 1    
    34   27   55 1    
    35   27   29 1    
    36    8   13 1    
    37    7    8 1    
    38   29   60 1    
    39   14   26 ar   
    40   16   17 ar   
    41   15   16 1    
    42    2    1 2    
    43    4    2 ar   
    44   17   18 ar   
    45   20   50 1    
    46   20   19 ar   
    47   13   12 1    
    48   13   46 1    
    49   29   61 1    
    50   29   59 1    
    51    6    7 1    
    52    5    6 1    
    53    4   14 ar   
    54   14   15 1    
    55   12   44 1    
    56   12   45 1    
    57    4    5 1    
    58    7   35 1    
    59    7   36 1    
    60   18   19 ar   
    61   18   48 1    
    62   19   49 1    
    63    5   34 1    
    64    5   33 1    
@<TRIPOS>SUBSTRUCTURE
     1 ****       57 TEMP              0 ****  ****    0 ROOT 
