#	Name:			SGF-2005-CPB-886-7R
#	Creating user name:	Administrator
#	Creation time:		Sun Jul 05 16:46:37 2020

#	Modifying user name:	Administrator
#	Modification time:	Sun Jul 05 16:48:40 2020

@<TRIPOS>MOLECULE
SGF-2005-CPB-886-7R
   52    55     1     0     0
SMALL
MULLIKEN_CHARGES
INVALID_CHARGES
Gaussian 16 #p B3LYP/6-31G* opt
@<TRIPOS>ATOM
      1 C          -1.884840    3.576130   -2.482176 C.3       1 <1>        -0.449100 
      2 C          -2.353938    2.668869   -1.330961 C.3       1 <1>        -0.321800 
      3 C          -1.320722    2.521338   -0.238574 C.ar      1 <1>         0.036700 
      4 C          -0.435181    1.491403   -0.105869 C.ar      1 <1>         0.028100 
      5 S          -0.353867    0.241549   -1.399542 S.3       1 <1>         0.170300 
      6 C          -1.275670   -1.153428   -0.714748 C.ar      1 <1>        -0.172700 
      7 C          -2.407679   -0.950621    0.049555 C.ar      1 <1>        -0.160300 
      8 C          -3.151041   -2.047283    0.542318 C.ar      1 <1>        -0.126300 
      9 C          -2.773317   -3.334587    0.240394 C.ar      1 <1>        -0.194300 
     10 C          -1.627596   -3.583665   -0.560473 C.ar      1 <1>         0.143900 
     11 C          -1.230093   -4.908039   -0.887862 C.ar      1 <1>        -0.190800 
     12 C          -0.114557   -5.146200   -1.656408 C.ar      1 <1>        -0.130100 
     13 C           0.661290   -4.061810   -2.128403 C.ar      1 <1>        -0.132700 
     14 C           0.306492   -2.764733   -1.831598 C.ar      1 <1>        -0.208100 
     15 C          -0.845609   -2.479768   -1.047364 C.ar      1 <1>         0.116300 
     16 N           0.520231    1.448902    0.926058 N.ar      1 <1>        -0.531900 
     17 C           1.487261    0.345532    1.155078 C.3       1 <1>         0.094200 
     18 O           1.343277   -0.269590    2.398247 O.3       1 <1>        -0.451300 
     19 C           0.183280   -1.078565    2.569882 C.3       1 <1>        -0.097700 
     20 C           0.103916   -1.516612    4.012969 C.ar      1 <1>         0.119700 
     21 C           0.561431   -0.680350    5.039627 C.ar      1 <1>        -0.170800 
     22 C           0.445561   -1.066058    6.374537 C.ar      1 <1>        -0.200800 
     23 C          -0.139367   -2.292155    6.670077 C.ar      1 <1>         0.379500 
     24 F          -0.254996   -2.670095    7.962268 F         1 <1>        -0.300500 
     25 C          -0.603901   -3.143877    5.675459 C.ar      1 <1>        -0.198000 
     26 C          -0.472400   -2.747652    4.344124 C.ar      1 <1>        -0.182900 
     27 C           0.699083    2.537018    1.797825 C.ar      1 <1>         0.794600 
     28 O           1.603157    2.596934    2.610978 O.2       1 <1>        -0.498700 
     29 N          -0.244202    3.539946    1.664453 N.ar      1 <1>        -0.700600 
     30 C          -1.264718    3.638708    0.720670 C.ar      1 <1>         0.609500 
     31 O          -2.017670    4.602342    0.716093 O.2       1 <1>        -0.501300 
     32 H          -1.008291    3.153597   -2.985974 H         1 <1>         0.150500 
     33 H          -1.626166    4.571660   -2.108862 H         1 <1>         0.168900 
     34 H          -2.681885    3.689669   -3.225302 H         1 <1>         0.149900 
     35 H          -2.631269    1.687910   -1.724014 H         1 <1>         0.163400 
     36 H          -3.245299    3.114042   -0.876650 H         1 <1>         0.171600 
     37 H          -2.730677    0.058793    0.283333 H         1 <1>         0.152600 
     38 H          -4.030915   -1.859688    1.150870 H         1 <1>         0.145600 
     39 H          -3.350667   -4.180361    0.604971 H         1 <1>         0.140700 
     40 H          -1.830538   -5.734690   -0.516127 H         1 <1>         0.138600 
     41 H           0.175809   -6.164492   -1.898787 H         1 <1>         0.140300 
     42 H           1.546778   -4.254304   -2.727650 H         1 <1>         0.140800 
     43 H           0.916846   -1.945617   -2.197650 H         1 <1>         0.158700 
     44 H           2.486480    0.780210    1.160193 H         1 <1>         0.187800 
     45 H           1.378334   -0.356708    0.326949 H         1 <1>         0.171900 
     46 H           0.219624   -1.950202    1.899355 H         1 <1>         0.144700 
     47 H          -0.714117   -0.502457    2.300582 H         1 <1>         0.149000 
     48 H           1.021746    0.268540    4.783889 H         1 <1>         0.173900 
     49 H           0.800945   -0.433629    7.181655 H         1 <1>         0.147800 
     50 H          -1.046155   -4.096847    5.947110 H         1 <1>         0.142800 
     51 H          -0.823944   -3.408050    3.554607 H         1 <1>         0.131900 
     52 H          -0.139302    4.319634    2.304474 H         1 <1>         0.356600 
@<TRIPOS>BOND
     1    8   38 1    
     2    9   39 1    
     3    8    9 ar   
     4    7    8 ar   
     5    2   36 1    
     6    7   37 1    
     7   10    9 ar   
     8    6    7 ar   
     9    2   35 1    
    10   30   31 2    
    11    1   34 1    
    12    2    1 1    
    13    3    2 1    
    14   25   50 1    
    15   11   40 1    
    16   23   24 1    
    17   25   23 ar   
    18   26   25 ar   
    19    1   33 1    
    20    1   32 1    
    21   10   11 ar   
    22   15   10 ar   
    23    3   30 ar   
    24   29   30 ar   
    25   26   51 1    
    26    4    3 ar   
    27   22   23 ar   
    28   20   26 ar   
    29    6   15 ar   
    30    5    6 1    
    31   19   47 1    
    32   11   12 ar   
    33   22   49 1    
    34   21   22 ar   
    35   15   14 ar   
    36   29   52 1    
    37   27   29 ar   
    38   20   21 ar   
    39   19   20 1    
    40    4    5 1    
    41   16    4 ar   
    42   21   48 1    
    43   19   46 1    
    44   18   19 1    
    45   12   41 1    
    46   13   12 ar   
    47   16   27 ar   
    48   17   16 1    
    49   27   28 2    
    50   14   13 ar   
    51   14   43 1    
    52   18   17 1    
    53   13   42 1    
    54   17   45 1    
    55   17   44 1    
@<TRIPOS>SUBSTRUCTURE
     1 ****       50 TEMP              0 ****  ****    0 ROOT 
