#	Name:			SGF-2005-CPB-886-7W
#	Creating user name:	Administrator
#	Creation time:		Sun Jul 05 16:46:37 2020

#	Modifying user name:	Administrator
#	Modification time:	Sun Jul 05 16:48:40 2020

@<TRIPOS>MOLECULE
SGF-2005-CPB-886-7W
   49    51     1     0     0
SMALL
MULLIKEN_CHARGES
INVALID_CHARGES
Gaussian 16 #p B3LYP/6-31G* opt
@<TRIPOS>ATOM
      1 C          -3.854567    2.485465   -0.642757 C.3       1 <1>        -0.454900 
      2 C          -2.452549    2.557974   -1.281990 C.3       1 <1>        -0.147000 
      3 C          -2.317446    3.788287   -2.202634 C.3       1 <1>        -0.461200 
      4 C          -1.351801    2.500650   -0.229584 C.ar      1 <1>         0.041700 
      5 C          -0.453487    1.478670   -0.092867 C.ar      1 <1>         0.030700 
      6 S          -0.591421    0.010189   -1.120290 S.3       1 <1>         0.180100 
      7 C           0.897895    0.086000   -2.138564 C.ar      1 <1>        -0.194300 
      8 C           1.324332    1.290694   -2.662735 C.ar      1 <1>        -0.150600 
      9 C           2.446316    1.346474   -3.519290 C.ar      1 <1>        -0.126400 
     10 C           3.108344    0.193518   -3.870162 C.ar      1 <1>        -0.190600 
     11 C           2.694158   -1.064647   -3.359925 C.ar      1 <1>         0.147300 
     12 C           3.373308   -2.261508   -3.713538 C.ar      1 <1>        -0.192500 
     13 C           2.985283   -3.476748   -3.199267 C.ar      1 <1>        -0.129400 
     14 C           1.901632   -3.544627   -2.292886 C.ar      1 <1>        -0.144500 
     15 C           1.213794   -2.407253   -1.929463 C.ar      1 <1>        -0.211900 
     16 C           1.576651   -1.136181   -2.457537 C.ar      1 <1>         0.110100 
     17 N           0.558735    1.480690    0.886259 N.ar      1 <1>        -0.522000 
     18 C           1.374823    0.310576    1.171410 C.3       1 <1>         0.079700 
     19 O           0.577816   -0.632048    1.861211 O.3       1 <1>        -0.485300 
     20 C           1.234436   -1.879815    2.083493 C.3       1 <1>        -0.047800 
     21 C           0.136040   -2.918694    2.251059 C.3       1 <1>        -0.039900 
     22 O          -0.669709   -3.003536    1.085479 O.3       1 <1>        -0.626000 
     23 C           0.706241    2.543245    1.795170 C.ar      1 <1>         0.796600 
     24 O           1.561071    2.576739    2.663037 O.2       1 <1>        -0.505600 
     25 N          -0.204090    3.562629    1.617865 N.ar      1 <1>        -0.698100 
     26 C          -1.263466    3.633672    0.711270 C.ar      1 <1>         0.611100 
     27 O          -2.013227    4.600296    0.740483 O.2       1 <1>        -0.499400 
     28 H          -4.618495    2.462040   -1.428744 H         1 <1>         0.143100 
     29 H          -4.042331    3.352864   -0.005381 H         1 <1>         0.181100 
     30 H          -3.967006    1.577776   -0.038483 H         1 <1>         0.141100 
     31 H          -2.336732    1.671805   -1.910282 H         1 <1>         0.163400 
     32 H          -1.336624    3.812009   -2.692943 H         1 <1>         0.136100 
     33 H          -3.080144    3.742180   -2.988737 H         1 <1>         0.143600 
     34 H          -2.449862    4.718622   -1.646501 H         1 <1>         0.184700 
     35 H           0.790972    2.204962   -2.421833 H         1 <1>         0.152300 
     36 H           2.766755    2.307483   -3.911427 H         1 <1>         0.141600 
     37 H           3.960322    0.228858   -4.544298 H         1 <1>         0.138800 
     38 H           4.212818   -2.195412   -4.401429 H         1 <1>         0.136200 
     39 H           3.514080   -4.383511   -3.479505 H         1 <1>         0.137300 
     40 H           1.608339   -4.502574   -1.872992 H         1 <1>         0.144100 
     41 H           0.404871   -2.490024   -1.210936 H         1 <1>         0.178200 
     42 H           1.757836   -0.111502    0.238922 H         1 <1>         0.169900 
     43 H           2.205413    0.657349    1.789706 H         1 <1>         0.192700 
     44 H           1.879470   -1.826291    2.973903 H         1 <1>         0.138000 
     45 H           1.856431   -2.142723    1.215138 H         1 <1>         0.143400 
     46 H           0.578437   -3.907364    2.410581 H         1 <1>         0.147700 
     47 H          -0.469822   -2.669367    3.136274 H         1 <1>         0.139600 
     48 H          -0.926462   -2.088437    0.877357 H         1 <1>         0.420000 
     49 H          -0.124077    4.333899    2.271495 H         1 <1>         0.357400 
@<TRIPOS>BOND
     1    1   28 1    
     2    1   30 1    
     3    1   29 1    
     4    2    1 1    
     5    2   31 1    
     6   22   48 1    
     7   21   22 1    
     8    3   33 1    
     9    2    3 1    
    10    4    2 1    
    11   14   40 1    
    12   15   41 1    
    13   21   47 1    
    14    3   34 1    
    15    3   32 1    
    16    6    7 1    
    17    5    6 1    
    18   21   46 1    
    19   20   21 1    
    20   15   14 ar   
    21   14   13 ar   
    22   16   15 ar   
    23    5    4 ar   
    24    4   26 ar   
    25   13   39 1    
    26   12   13 ar   
    27    7   16 ar   
    28   16   11 ar   
    29    7    8 ar   
    30   17    5 ar   
    31   26   27 2    
    32   19   20 1    
    33   18   19 1    
    34   20   45 1    
    35   20   44 1    
    36   26   25 ar   
    37   11   12 ar   
    38   12   38 1    
    39   11   10 ar   
    40    8   35 1    
    41    8    9 ar   
    42   17   18 1    
    43   17   23 ar   
    44   18   42 1    
    45   18   43 1    
    46   10    9 ar   
    47   10   37 1    
    48    9   36 1    
    49   25   23 ar   
    50   25   49 1    
    51   23   24 2    
@<TRIPOS>SUBSTRUCTURE
     1 ****       40 TEMP              0 ****  ****    0 ROOT 
