#	Name:			SGF-2005-CPB-886-7A
#	Creating user name:	Administrator
#	Creation time:		Sun Jul 05 16:46:34 2020

#	Modifying user name:	Administrator
#	Modification time:	Sun Jul 05 16:48:40 2020

@<TRIPOS>MOLECULE
SGF-2005-CPB-886-7A
   42    44     1     0     0
SMALL
MULLIKEN_CHARGES
INVALID_CHARGES
Gaussian 16 #p B3LYP/6-31G* opt
@<TRIPOS>ATOM
      1 C           0.899106   -2.103153    3.439443 C.3       1 <1>        -0.460900 
      2 C           1.133621   -0.685879    2.947444 C.3       1 <1>        -0.023000 
      3 O           1.257460   -0.733131    1.520984 O.3       1 <1>        -0.451700 
      4 C           1.642439    0.460597    0.914804 C.3       1 <1>         0.071100 
      5 N           0.579332    1.494475    0.863302 N.ar      1 <1>        -0.518200 
      6 C          -0.454995    1.479152   -0.090049 C.ar      1 <1>         0.041000 
      7 S          -0.491600    0.118576   -1.259880 S.3       1 <1>         0.170700 
      8 C          -1.234093   -1.224781   -0.307013 C.ar      1 <1>        -0.138800 
      9 C          -2.195527   -0.971729    0.649079 C.ar      1 <1>        -0.158200 
     10 C          -2.815542   -2.035120    1.343847 C.ar      1 <1>        -0.127500 
     11 C          -2.491937   -3.339635    1.052945 C.ar      1 <1>        -0.196000 
     12 C          -1.521510   -3.638002    0.060443 C.ar      1 <1>         0.145700 
     13 C          -1.182700   -4.980105   -0.260179 C.ar      1 <1>        -0.191600 
     14 C          -0.235791   -5.266027   -1.216055 C.ar      1 <1>        -0.130800 
     15 C           0.424637   -4.213045   -1.890949 C.ar      1 <1>        -0.135200 
     16 C           0.121863   -2.900335   -1.605411 C.ar      1 <1>        -0.202900 
     17 C          -0.860341   -2.567604   -0.633331 C.ar      1 <1>         0.128700 
     18 C          -1.361723    2.493546   -0.199911 C.ar      1 <1>         0.032300 
     19 C          -2.494850    2.574564   -1.185799 C.3       1 <1>        -0.509700 
     20 C          -1.259222    3.641624    0.713977 C.ar      1 <1>         0.602300 
     21 O          -2.003527    4.611132    0.703756 O.2       1 <1>        -0.496300 
     22 N          -0.229489    3.545718    1.651164 N.ar      1 <1>        -0.697400 
     23 C           0.703635    2.537674    1.792693 C.ar      1 <1>         0.785000 
     24 O           1.565966    2.573270    2.656702 O.2       1 <1>        -0.517100 
     25 H           1.736938   -2.751258    3.162702 H         1 <1>         0.157400 
     26 H          -0.015235   -2.516128    3.002209 H         1 <1>         0.167700 
     27 H           0.798672   -2.110645    4.530520 H         1 <1>         0.144200 
     28 H           0.296627   -0.032854    3.230985 H         1 <1>         0.134100 
     29 H           2.046618   -0.255890    3.382582 H         1 <1>         0.143500 
     30 H           2.477398    0.933514    1.436378 H         1 <1>         0.183800 
     31 H           1.913656    0.212507   -0.109438 H         1 <1>         0.182300 
     32 H          -2.482711    0.050006    0.875373 H         1 <1>         0.141900 
     33 H          -3.563329   -1.808692    2.098879 H         1 <1>         0.137800 
     34 H          -2.979086   -4.160579    1.572848 H         1 <1>         0.135200 
     35 H          -1.690965   -5.782118    0.269748 H         1 <1>         0.133900 
     36 H           0.011146   -6.297726   -1.450594 H         1 <1>         0.134700 
     37 H           1.181199   -4.442041   -2.636309 H         1 <1>         0.135100 
     38 H           0.648557   -2.105492   -2.123294 H         1 <1>         0.153000 
     39 H          -2.678924    1.619734   -1.678030 H         1 <1>         0.183200 
     40 H          -3.403030    2.909306   -0.675316 H         1 <1>         0.179100 
     41 H          -2.280144    3.325781   -1.956097 H         1 <1>         0.175500 
     42 H          -0.140976    4.312546    2.308785 H         1 <1>         0.356200 
@<TRIPOS>BOND
     1   15   37 1    
     2   16   38 1    
     3    4   31 1    
     4   16   15 ar   
     5   15   14 ar   
     6    4   30 1    
     7   17   16 ar   
     8    4    5 1    
     9    3    4 1    
    10    6    7 1    
    11    7    8 1    
    12   14   36 1    
    13   14   13 ar   
    14    5    6 ar   
    15    5   23 ar   
    16    2    3 1    
    17   19   41 1    
    18    6   18 ar   
    19   23   24 2    
    20   23   22 ar   
    21    8   17 ar   
    22   17   12 ar   
    23   18   19 1    
    24   18   20 ar   
    25    2   29 1    
    26   19   39 1    
    27    8    9 ar   
    28   19   40 1    
    29   22   20 ar   
    30   22   42 1    
    31    1   25 1    
    32   20   21 2    
    33    2    1 1    
    34    2   28 1    
    35   13   12 ar   
    36   13   35 1    
    37   12   11 ar   
    38    1   26 1    
    39    1   27 1    
    40    9   32 1    
    41    9   10 ar   
    42   11   10 ar   
    43   11   34 1    
    44   10   33 1    
@<TRIPOS>SUBSTRUCTURE
     1 ****       37 TEMP              0 ****  ****    0 ROOT 
