#	Name:			SGF-2005-CPB-886-11C
#	Creating user name:	Administrator
#	Creation time:		Sun Jul 05 16:46:34 2020

#	Modifying user name:	Administrator
#	Modification time:	Sun Jul 05 16:48:40 2020

@<TRIPOS>MOLECULE
SGF-2005-CPB-886-11C
   54    57     1     0     0
SMALL
MULLIKEN_CHARGES
INVALID_CHARGES
Gaussian 16 #p B3LYP/6-31G* opt
@<TRIPOS>ATOM
      1 C          -3.857760    2.068537   -0.474745 C.3       1 <1>        -0.448600 
      2 C          -2.545712    2.519204   -1.142824 C.3       1 <1>        -0.324400 
      3 C          -1.372251    2.483577   -0.193317 C.ar      1 <1>         0.058600 
      4 C          -0.459787    1.478921   -0.087048 C.ar      1 <1>        -0.016400 
      5 S          -0.593519   -0.019855   -1.091472 S.3       1 <1>         0.292700 
      6 C           0.031528    0.573110   -2.664863 C.ar      1 <1>        -0.127200 
      7 C           0.928320    1.673871   -2.706514 C.ar      1 <1>        -0.165100 
      8 C           1.437426    2.123853   -3.896595 C.ar      1 <1>        -0.154800 
      9 C           1.104182    1.510349   -5.130853 C.ar      1 <1>         0.109000 
     10 C           1.671665    1.968985   -6.347232 C.ar      1 <1>        -0.191800 
     11 C           1.369035    1.356511   -7.540657 C.ar      1 <1>        -0.127600 
     12 C           0.485405    0.254796   -7.551369 C.ar      1 <1>        -0.133300 
     13 C          -0.093246   -0.211169   -6.389912 C.ar      1 <1>        -0.178000 
     14 C           0.192538    0.403942   -5.139557 C.ar      1 <1>         0.139800 
     15 C          -0.331248   -0.026121   -3.872455 C.ar      1 <1>         0.176800 
     16 N          -1.278125   -1.137953   -3.822617 N.pl3     1 <1>         0.338700 
     17 O          -2.108558   -1.261191   -4.722948 O.2       1 <1>        -0.380700 
     18 O          -1.206005   -1.891772   -2.845025 O.2       1 <1>        -0.373400 
     19 N           0.590470    1.507236    0.849366 N.ar      1 <1>        -0.519800 
     20 C           1.438028    0.348805    1.085661 C.3       1 <1>         0.080500 
     21 O           0.670274   -0.596440    1.803565 O.3       1 <1>        -0.466600 
     22 C           1.319421   -1.854461    1.969400 C.3       1 <1>        -0.099900 
     23 C           2.519018   -1.821590    2.899360 C.ar      1 <1>         0.106800 
     24 C           3.578598   -2.715622    2.707998 C.ar      1 <1>        -0.180900 
     25 C           4.659780   -2.735716    3.590341 C.ar      1 <1>        -0.128900 
     26 C           4.698955   -1.847996    4.666929 C.ar      1 <1>        -0.128200 
     27 C           3.651529   -0.943979    4.855835 C.ar      1 <1>        -0.129800 
     28 C           2.564458   -0.933438    3.981209 C.ar      1 <1>        -0.169000 
     29 C           0.706349    2.541228    1.795961 C.ar      1 <1>         0.796400 
     30 O           1.547863    2.556657    2.677370 O.2       1 <1>        -0.505600 
     31 N          -0.203770    3.564822    1.624085 N.ar      1 <1>        -0.702100 
     32 C          -1.260590    3.638656    0.713136 C.ar      1 <1>         0.608400 
     33 O          -2.008305    4.605495    0.712081 O.2       1 <1>        -0.498600 
     34 H          -4.089849    2.702122    0.386560 H         1 <1>         0.168600 
     35 H          -3.790590    1.028999   -0.136460 H         1 <1>         0.156900 
     36 H          -4.688454    2.142961   -1.184967 H         1 <1>         0.151400 
     37 H          -2.660945    3.553073   -1.484417 H         1 <1>         0.172400 
     38 H          -2.348171    1.903555   -2.022388 H         1 <1>         0.156000 
     39 H           1.217637    2.160081   -1.783067 H         1 <1>         0.161700 
     40 H           2.128194    2.963074   -3.900975 H         1 <1>         0.152700 
     41 H           2.357096    2.811882   -6.313074 H         1 <1>         0.142700 
     42 H           1.808170    1.710961   -8.468541 H         1 <1>         0.143700 
     43 H           0.251920   -0.236583   -8.491675 H         1 <1>         0.146200 
     44 H          -0.775144   -1.048126   -6.432030 H         1 <1>         0.177300 
     45 H           1.765599   -0.065311    0.126103 H         1 <1>         0.161000 
     46 H           2.297966    0.694235    1.660427 H         1 <1>         0.200700 
     47 H           1.610231   -2.262540    0.988349 H         1 <1>         0.141900 
     48 H           0.538760   -2.507665    2.374935 H         1 <1>         0.174100 
     49 H           3.557713   -3.402416    1.863890 H         1 <1>         0.123900 
     50 H           5.474708   -3.437091    3.430767 H         1 <1>         0.130400 
     51 H           5.543566   -1.856220    5.350686 H         1 <1>         0.130500 
     52 H           3.679912   -0.243007    5.685851 H         1 <1>         0.135800 
     53 H           1.756677   -0.221070    4.120114 H         1 <1>         0.157400 
     54 H          -0.125380    4.328565    2.286573 H         1 <1>         0.357700 
@<TRIPOS>BOND
     1   10   41 1    
     2    8   40 1    
     3   11   42 1    
     4   10   11 ar   
     5    9   10 ar   
     6    8    9 ar   
     7    7    8 ar   
     8   12   11 ar   
     9    7   39 1    
    10   14    9 ar   
    11   29   30 2    
    12   31   54 1    
    13    6    7 ar   
    14   26   51 1    
    15   29   31 ar   
    16   31   32 ar   
    17   19   29 ar   
    18   20   46 1    
    19   27   52 1    
    20   27   26 ar   
    21   25   26 ar   
    22   12   43 1    
    23   13   12 ar   
    24   32   33 2    
    25   28   27 ar   
    26    3   32 ar   
    27   20   19 1    
    28   19    4 ar   
    29   25   50 1    
    30   20   45 1    
    31   21   20 1    
    32   24   25 ar   
    33   14   13 ar   
    34   15   14 ar   
    35    6   15 ar   
    36    5    6 1    
    37   28   53 1    
    38   23   28 ar   
    39    4    3 ar   
    40    3    2 1    
    41    4    5 1    
    42   13   44 1    
    43    2   37 1    
    44   23   24 ar   
    45   24   49 1    
    46   22   23 1    
    47   15   16 1    
    48    2   38 1    
    49    2    1 1    
    50   21   22 1    
    51   22   47 1    
    52   22   48 1    
    53   16   17 2    
    54   16   18 2    
    55    1   34 1    
    56    1   36 1    
    57    1   35 1    
@<TRIPOS>SUBSTRUCTURE
     1 ****       54 TEMP              0 ****  ****    0 ROOT 
