#	Name:			SGF-2005-CPB-886-7B
#	Creating user name:	Administrator
#	Creation time:		Sun Jul 05 16:46:35 2020

#	Modifying user name:	Administrator
#	Modification time:	Sun Jul 05 16:48:40 2020

@<TRIPOS>MOLECULE
SGF-2005-CPB-886-7B
   49    52     1     0     0
SMALL
MULLIKEN_CHARGES
INVALID_CHARGES
Gaussian 16 #p B3LYP/6-31G* opt
@<TRIPOS>ATOM
      1 C          -2.359780    2.643306   -1.323392 C.3       1 <1>        -0.527500 
      2 C          -1.329089    2.517440   -0.236464 C.ar      1 <1>         0.053500 
      3 C          -0.459004    1.477337   -0.089034 C.ar      1 <1>         0.044900 
      4 S          -0.480874    0.019031   -1.145049 S.3       1 <1>         0.187200 
      5 C          -2.198220   -0.520250   -1.143604 C.ar      1 <1>        -0.183500 
      6 C          -2.783327   -0.672244   -2.386739 C.ar      1 <1>        -0.153200 
      7 C          -4.082690   -1.211804   -2.520200 C.ar      1 <1>        -0.126800 
      8 C          -4.794384   -1.574190   -1.401971 C.ar      1 <1>        -0.187900 
      9 C          -4.230100   -1.438656   -0.105533 C.ar      1 <1>         0.145000 
     10 C          -4.956911   -1.825528    1.052408 C.ar      1 <1>        -0.190300 
     11 C          -4.402144   -1.722882    2.306678 C.ar      1 <1>        -0.130100 
     12 C          -3.084439   -1.231623    2.453652 C.ar      1 <1>        -0.136800 
     13 C          -2.353742   -0.841782    1.352844 C.ar      1 <1>        -0.194000 
     14 C          -2.897221   -0.920899    0.042923 C.ar      1 <1>         0.133800 
     15 N           0.548461    1.475782    0.894541 N.ar      1 <1>        -0.525100 
     16 C           1.591799    0.433725    0.934270 C.3       1 <1>         0.053400 
     17 O           2.425596    0.457500   -0.190863 O.3       1 <1>        -0.456900 
     18 C           3.362152    1.540657   -0.216732 C.3       1 <1>        -0.102900 
     19 C           4.340741    1.330404   -1.346888 C.ar      1 <1>         0.132800 
     20 C           4.819795    2.426530   -2.072026 C.ar      1 <1>        -0.180900 
     21 C           5.768066    2.252176   -3.081451 C.ar      1 <1>        -0.128800 
     22 C           6.238343    0.973851   -3.384254 C.ar      1 <1>        -0.127000 
     23 C           5.756839   -0.126387   -2.671003 C.ar      1 <1>        -0.132300 
     24 C           4.817188    0.050497   -1.655757 C.ar      1 <1>        -0.158400 
     25 C           0.703121    2.541308    1.795469 C.ar      1 <1>         0.782200 
     26 O           1.596086    2.594968    2.627897 O.2       1 <1>        -0.519000 
     27 N          -0.252533    3.525781    1.674703 N.ar      1 <1>        -0.697200 
     28 C          -1.265876    3.633449    0.714510 C.ar      1 <1>         0.596900 
     29 O          -2.001189    4.610527    0.710013 O.2       1 <1>        -0.503000 
     30 H          -3.293830    2.127447   -1.070939 H         1 <1>         0.177400 
     31 H          -2.597237    3.700977   -1.457893 H         1 <1>         0.187800 
     32 H          -1.995260    2.227452   -2.266450 H         1 <1>         0.166800 
     33 H          -2.238752   -0.361788   -3.273255 H         1 <1>         0.154400 
     34 H          -4.515899   -1.319952   -3.510235 H         1 <1>         0.141500 
     35 H          -5.800747   -1.975317   -1.492859 H         1 <1>         0.139900 
     36 H          -5.965722   -2.210642    0.924955 H         1 <1>         0.136800 
     37 H          -4.969020   -2.022822    3.183398 H         1 <1>         0.138200 
     38 H          -2.643487   -1.162511    3.444225 H         1 <1>         0.138900 
     39 H          -1.344904   -0.471255    1.488390 H         1 <1>         0.148400 
     40 H           2.141514    0.603723    1.861995 H         1 <1>         0.197100 
     41 H           1.114605   -0.545122    0.935296 H         1 <1>         0.187500 
     42 H           2.838346    2.498432   -0.342919 H         1 <1>         0.143700 
     43 H           3.884616    1.583554    0.751904 H         1 <1>         0.160900 
     44 H           4.447871    3.424006   -1.847555 H         1 <1>         0.126000 
     45 H           6.130612    3.113478   -3.636249 H         1 <1>         0.130600 
     46 H           6.971585    0.834428   -4.174216 H         1 <1>         0.129500 
     47 H           6.114428   -1.125655   -2.905687 H         1 <1>         0.130500 
     48 H           4.435449   -0.804467   -1.106680 H         1 <1>         0.140600 
     49 H          -0.166120    4.297675    2.326108 H         1 <1>         0.355300 
@<TRIPOS>BOND
     1   12   38 1    
     2   11   37 1    
     3   16   40 1    
     4   12   11 ar   
     5   13   12 ar   
     6   16   41 1    
     7   10   11 ar   
     8   24   48 1    
     9   13   39 1    
    10   16   17 1    
    11   15   16 1    
    12   18   43 1    
    13   25   26 2    
    14   14   13 ar   
    15   23   47 1    
    16   17   18 1    
    17   10   36 1    
    18    9   10 ar   
    19   24   23 ar   
    20   19   24 ar   
    21   23   22 ar   
    22   18   19 1    
    23   18   42 1    
    24   15   25 ar   
    25   25   27 ar   
    26    3   15 ar   
    27   14    9 ar   
    28    5   14 ar   
    29   19   20 ar   
    30    9    8 ar   
    31    4    3 1    
    32    4    5 1    
    33   22   46 1    
    34   22   21 ar   
    35   27   49 1    
    36   27   28 ar   
    37    3    2 ar   
    38    5    6 ar   
    39   20   21 ar   
    40   20   44 1    
    41    8   35 1    
    42    8    7 ar   
    43   21   45 1    
    44   28    2 ar   
    45   28   29 2    
    46    2    1 1    
    47    6    7 ar   
    48    6   33 1    
    49    7   34 1    
    50    1   30 1    
    51    1   32 1    
    52    1   31 1    
@<TRIPOS>SUBSTRUCTURE
     1 ****       26 TEMP              0 ****  ****    0 ROOT 
