#	Name:			SGF-2005-CPB-886-7L
#	Creating user name:	Administrator
#	Creation time:		Sun Jul 05 16:46:36 2020

#	Modifying user name:	Administrator
#	Modification time:	Sun Jul 05 16:48:40 2020

@<TRIPOS>MOLECULE
SGF-2005-CPB-886-7L
   58    61     1     0     0
SMALL
MULLIKEN_CHARGES
INVALID_CHARGES
Gaussian 16 #p B3LYP/6-31G* opt
@<TRIPOS>ATOM
      1 C           6.339517   -2.854602    3.822373 C.3       1 <1>        -0.529800 
      2 C           5.702050   -1.558937    3.375118 C.ar      1 <1>         0.181600 
      3 C           5.832135   -0.391961    4.140047 C.ar      1 <1>        -0.178700 
      4 C           5.256002    0.804777    3.715187 C.ar      1 <1>        -0.131100 
      5 C           4.548079    0.864204    2.514174 C.ar      1 <1>        -0.171100 
      6 C           4.403929   -0.289879    1.737318 C.ar      1 <1>         0.110400 
      7 C           3.687482   -0.252499    0.398952 C.3       1 <1>        -0.099100 
      8 O           2.641343    0.710187    0.303891 O.3       1 <1>        -0.466700 
      9 C           1.507183    0.396392    1.085392 C.3       1 <1>         0.089600 
     10 N           0.532456    1.462792    0.912513 N.ar      1 <1>        -0.523500 
     11 C          -0.445616    1.478743   -0.097706 C.ar      1 <1>         0.044500 
     12 S          -0.704786   -0.010771   -1.080056 S.3       1 <1>         0.165000 
     13 C           0.810772   -0.449363   -1.952291 C.ar      1 <1>        -0.166100 
     14 C           1.177921   -1.777694   -1.838538 C.ar      1 <1>        -0.166600 
     15 C           2.243019   -2.306243   -2.604598 C.ar      1 <1>        -0.129100 
     16 C           2.945389   -1.491193   -3.458884 C.ar      1 <1>        -0.189400 
     17 C           2.599047   -0.120879   -3.605550 C.ar      1 <1>         0.144500 
     18 C           3.311135    0.722173   -4.499871 C.ar      1 <1>        -0.192900 
     19 C           2.955901    2.040683   -4.667024 C.ar      1 <1>        -0.129100 
     20 C           1.863188    2.571214   -3.943924 C.ar      1 <1>        -0.142000 
     21 C           1.154475    1.783213   -3.063790 C.ar      1 <1>        -0.192500 
     22 C           1.498486    0.422355   -2.857916 C.ar      1 <1>         0.147900 
     23 C          -1.332950    2.514745   -0.243633 C.ar      1 <1>         0.027200 
     24 C          -2.427108    2.587058   -1.305061 C.3       1 <1>        -0.142000 
     25 C          -3.829682    2.438508   -0.680029 C.3       1 <1>        -0.454900 
     26 C          -2.334206    3.862143   -2.169023 C.3       1 <1>        -0.464600 
     27 C          -1.261526    3.634674    0.709355 C.ar      1 <1>         0.610400 
     28 O          -2.021126    4.594494    0.749369 O.2       1 <1>        -0.505200 
     29 N          -0.211023    3.559336    1.625154 N.ar      1 <1>        -0.700100 
     30 C           0.706503    2.546514    1.789944 C.ar      1 <1>         0.802600 
     31 O           1.573260    2.585292    2.646638 O.2       1 <1>        -0.506700 
     32 C           4.974354   -1.488326    2.181812 C.ar      1 <1>        -0.238800 
     33 H           6.255651   -2.990237    4.906490 H         1 <1>         0.158300 
     34 H           7.409728   -2.878489    3.576747 H         1 <1>         0.164300 
     35 H           5.874591   -3.719248    3.337260 H         1 <1>         0.152500 
     36 H           6.380861   -0.425427    5.078922 H         1 <1>         0.119700 
     37 H           5.352941    1.698368    4.326420 H         1 <1>         0.132300 
     38 H           4.078145    1.788818    2.196257 H         1 <1>         0.165000 
     39 H           3.305528   -1.254000    0.147528 H         1 <1>         0.133200 
     40 H           4.383983    0.034054   -0.397080 H         1 <1>         0.169700 
     41 H           1.058347   -0.550294    0.771762 H         1 <1>         0.159700 
     42 H           1.758357    0.357098    2.146908 H         1 <1>         0.189600 
     43 H           0.638496   -2.426193   -1.154386 H         1 <1>         0.150400 
     44 H           2.504343   -3.355585   -2.501133 H         1 <1>         0.139300 
     45 H           3.772543   -1.885312   -4.044139 H         1 <1>         0.138800 
     46 H           4.144625    0.300129   -5.056268 H         1 <1>         0.135200 
     47 H           3.508440    2.673934   -5.355390 H         1 <1>         0.137400 
     48 H           1.579178    3.610530   -4.083858 H         1 <1>         0.138700 
     49 H           0.322578    2.208105   -2.516768 H         1 <1>         0.160200 
     50 H          -2.279839    1.736729   -1.974543 H         1 <1>         0.160500 
     51 H          -4.591428    2.440805   -1.468605 H         1 <1>         0.141800 
     52 H          -3.919683    1.495437   -0.128589 H         1 <1>         0.140700 
     53 H          -4.041666    3.263507    0.005000 H         1 <1>         0.178900 
     54 H          -1.347433    3.957296   -2.637750 H         1 <1>         0.137800 
     55 H          -3.078224    3.810917   -2.972574 H         1 <1>         0.140800 
     56 H          -2.522444    4.759830   -1.577410 H         1 <1>         0.187000 
     57 H          -0.128315    4.331967    2.276454 H         1 <1>         0.355600 
     58 H           4.850237   -2.391102    1.584388 H         1 <1>         0.109000 
@<TRIPOS>BOND
     1   14   43 1    
     2   25   52 1    
     3   15   44 1    
     4   14   15 ar   
     5   13   14 ar   
     6   25   51 1    
     7    1   35 1    
     8   12   13 1    
     9   11   12 1    
    10   25   53 1    
    11   24   25 1    
    12   15   16 ar   
    13    9   41 1    
    14    1   33 1    
    15   13   22 ar   
    16   24   50 1    
    17   32   58 1    
    18    1   34 1    
    19    2    1 1    
    20    7   39 1    
    21    9   42 1    
    22   10   11 ar   
    23   11   23 ar   
    24   23   24 1    
    25   24   26 1    
    26    9   10 1    
    27    8    9 1    
    28   16   45 1    
    29   17   16 ar   
    30   32    2 ar   
    31    6   32 ar   
    32   10   30 ar   
    33   23   27 ar   
    34    2    3 ar   
    35   22   17 ar   
    36   22   21 ar   
    37    7    6 1    
    38    7    8 1    
    39    7   40 1    
    40   26   55 1    
    41    6    5 ar   
    42   27   28 2    
    43   27   29 ar   
    44   17   18 ar   
    45   30   29 ar   
    46   30   31 2    
    47    3   36 1    
    48    3    4 ar   
    49   26   56 1    
    50   26   54 1    
    51   29   57 1    
    52   21   49 1    
    53   21   20 ar   
    54    5    4 ar   
    55    5   38 1    
    56    4   37 1    
    57   18   46 1    
    58   18   19 ar   
    59   20   19 ar   
    60   20   48 1    
    61   19   47 1    
@<TRIPOS>SUBSTRUCTURE
     1 ****       39 TEMP              0 ****  ****    0 ROOT 
