#	Name:			SGF-2005-CPB-886-7I
#	Creating user name:	Administrator
#	Creation time:		Sun Jul 05 16:46:35 2020

#	Modifying user name:	Administrator
#	Modification time:	Sun Jul 05 16:48:40 2020

@<TRIPOS>MOLECULE
SGF-2005-CPB-886-7I
   52    54     1     0     0
SMALL
MULLIKEN_CHARGES
INVALID_CHARGES
Gaussian 16 #p B3LYP/6-31G* opt
@<TRIPOS>ATOM
      1 C          -1.251502    1.788983    4.473797 C.3       1 <1>        -0.216700 
      2 O          -1.436083    0.938099    3.353746 O.3       1 <1>        -0.465200 
      3 C          -0.991860   -0.392577    3.568663 C.3       1 <1>        -0.031800 
      4 C           0.479238   -0.631962    3.233480 C.3       1 <1>        -0.061400 
      5 O           0.682343   -0.740064    1.819245 O.3       1 <1>        -0.452600 
      6 C           1.382822    0.286472    1.181697 C.3       1 <1>         0.049500 
      7 N           0.561129    1.481725    0.886073 N.ar      1 <1>        -0.510600 
      8 C          -0.447145    1.483417   -0.092146 C.ar      1 <1>         0.031600 
      9 S          -0.538312    0.038093   -1.156285 S.3       1 <1>         0.200100 
     10 C           0.941075    0.219054   -2.173071 C.ar      1 <1>        -0.189500 
     11 C           1.395939    1.463837   -2.561969 C.ar      1 <1>        -0.154900 
     12 C           2.524688    1.589219   -3.402823 C.ar      1 <1>        -0.125500 
     13 C           3.171297    0.470110   -3.871601 C.ar      1 <1>        -0.192400 
     14 C           2.729164   -0.827412   -3.502671 C.ar      1 <1>         0.147000 
     15 C           3.386155   -1.994246   -3.977762 C.ar      1 <1>        -0.191900 
     16 C           2.965227   -3.249384   -3.604157 C.ar      1 <1>        -0.130500 
     17 C           1.867071   -3.392224   -2.724213 C.ar      1 <1>        -0.135100 
     18 C           1.204367   -2.284127   -2.244943 C.ar      1 <1>        -0.204200 
     19 C           1.602128   -0.971842   -2.622615 C.ar      1 <1>         0.112700 
     20 C          -1.357523    2.496032   -0.221313 C.ar      1 <1>         0.048500 
     21 C          -2.470279    2.540373   -1.260816 C.3       1 <1>        -0.146900 
     22 C          -3.862566    2.462733   -0.601040 C.3       1 <1>        -0.454000 
     23 C          -2.355681    3.765362   -2.190738 C.3       1 <1>        -0.460100 
     24 C          -1.264381    3.631751    0.712457 C.ar      1 <1>         0.616100 
     25 O          -2.022148    4.592489    0.756846 O.2       1 <1>        -0.506500 
     26 N          -0.172819    3.582891    1.581983 N.ar      1 <1>        -0.700800 
     27 C           0.703565    2.540696    1.786769 C.ar      1 <1>         0.820100 
     28 O           1.539299    2.567590    2.680965 O.2       1 <1>        -0.539700 
     29 H          -0.190019    1.963058    4.697123 H         1 <1>         0.155000 
     30 H          -1.717775    2.745030    4.221842 H         1 <1>         0.160300 
     31 H          -1.745491    1.379361    5.368648 H         1 <1>         0.133100 
     32 H          -1.176327   -0.692413    4.613401 H         1 <1>         0.118000 
     33 H          -1.599384   -1.033845    2.920512 H         1 <1>         0.159100 
     34 H           0.782080   -1.595499    3.664356 H         1 <1>         0.140100 
     35 H           1.115636    0.152238    3.659225 H         1 <1>         0.166300 
     36 H           2.216546    0.653274    1.781806 H         1 <1>         0.190700 
     37 H           1.748763   -0.122806    0.243811 H         1 <1>         0.186700 
     38 H           0.880645    2.358157   -2.226165 H         1 <1>         0.150300 
     39 H           2.864830    2.581054   -3.686936 H         1 <1>         0.139700 
     40 H           4.030181    0.562387   -4.531494 H         1 <1>         0.136500 
     41 H           4.235412   -1.873404   -4.646060 H         1 <1>         0.135000 
     42 H           3.477991   -4.131808   -3.976635 H         1 <1>         0.135700 
     43 H           1.547315   -4.384686   -2.418784 H         1 <1>         0.137200 
     44 H           0.374530   -2.410482   -1.557314 H         1 <1>         0.166400 
     45 H          -2.356867    1.650551   -1.884487 H         1 <1>         0.161200 
     46 H          -4.049237    3.337082    0.027219 H         1 <1>         0.179500 
     47 H          -4.637265    2.421035   -1.375921 H         1 <1>         0.138800 
     48 H          -3.955437    1.563672    0.018573 H         1 <1>         0.145300 
     49 H          -2.477728    4.698479   -1.636437 H         1 <1>         0.182200 
     50 H          -3.134183    3.715677   -2.961041 H         1 <1>         0.141200 
     51 H          -1.385130    3.786393   -2.701037 H         1 <1>         0.135400 
     52 H          -0.088980    4.354760    2.233910 H         1 <1>         0.351200 
@<TRIPOS>BOND
     1   22   47 1    
     2   22   48 1    
     3   22   46 1    
     4   21   22 1    
     5   17   43 1    
     6    3   33 1    
     7   18   44 1    
     8   21   45 1    
     9   18   17 ar   
    10   17   16 ar   
    11   23   50 1    
    12    3   32 1    
    13   19   18 ar   
    14   21   23 1    
    15   20   21 1    
    16    8    9 1    
    17    9   10 1    
    18    3    2 1    
    19    4    3 1    
    20   16   42 1    
    21    2    1 1    
    22   15   16 ar   
    23   23   49 1    
    24   23   51 1    
    25    1   31 1    
    26    4   34 1    
    27    8   20 ar   
    28   20   24 ar   
    29    5    4 1    
    30    6    5 1    
    31   10   19 ar   
    32   19   14 ar   
    33    4   35 1    
    34    7    8 ar   
    35   10   11 ar   
    36    1   30 1    
    37    1   29 1    
    38   14   15 ar   
    39   15   41 1    
    40   24   25 2    
    41   24   26 ar   
    42   14   13 ar   
    43    6   37 1    
    44    6    7 1    
    45    6   36 1    
    46    7   27 ar   
    47   11   38 1    
    48   11   12 ar   
    49   26   27 ar   
    50   26   52 1    
    51   13   12 ar   
    52   13   40 1    
    53   27   28 2    
    54   12   39 1    
@<TRIPOS>SUBSTRUCTURE
     1 ****       33 TEMP              0 ****  ****    0 ROOT 
