#	Name:			SGF-2005-CPB-886-7F
#	Creating user name:	Administrator
#	Creation time:		Sun Jul 05 16:46:35 2020

#	Modifying user name:	Administrator
#	Modification time:	Sun Jul 05 16:48:40 2020

@<TRIPOS>MOLECULE
SGF-2005-CPB-886-7F
   55    58     1     0     0
SMALL
MULLIKEN_CHARGES
INVALID_CHARGES
Gaussian 16 #p B3LYP/6-31G* opt
@<TRIPOS>ATOM
      1 C          -3.745716    2.120753   -0.880618 C.3       1 <1>        -0.448600 
      2 C          -2.370308    2.656893   -1.317975 C.3       1 <1>        -0.326800 
      3 C          -1.319624    2.523765   -0.240624 C.ar      1 <1>         0.028600 
      4 C          -0.432818    1.492949   -0.106614 C.ar      1 <1>         0.041500 
      5 S          -0.504670    0.136566   -1.291515 S.3       1 <1>         0.159700 
      6 C           1.169529   -0.049505   -1.940373 C.ar      1 <1>        -0.188100 
      7 C           1.714754   -1.317980   -1.851401 C.ar      1 <1>        -0.156600 
      8 C           2.974965   -1.611726   -2.419882 C.ar      1 <1>        -0.127300 
      9 C           3.687811   -0.623577   -3.055030 C.ar      1 <1>        -0.186700 
     10 C           3.161332    0.689750   -3.178293 C.ar      1 <1>         0.146600 
     11 C           3.886257    1.707909   -3.853498 C.ar      1 <1>        -0.190700 
     12 C           3.361281    2.969909   -4.006751 C.ar      1 <1>        -0.129100 
     13 C           2.076898    3.264084   -3.493790 C.ar      1 <1>        -0.139200 
     14 C           1.349025    2.303504   -2.826641 C.ar      1 <1>        -0.194200 
     15 C           1.865808    0.994600   -2.634355 C.ar      1 <1>         0.131300 
     16 N           0.510772    1.445339    0.929866 N.ar      1 <1>        -0.526500 
     17 C           1.167946    0.211337    1.413130 C.3       1 <1>         0.076800 
     18 O           0.531758   -0.335047    2.534551 O.3       1 <1>        -0.453400 
     19 C          -0.673669   -1.049572    2.267616 C.3       1 <1>        -0.096100 
     20 C          -1.128443   -1.765452    3.518360 C.ar      1 <1>         0.131800 
     21 C          -2.493101   -1.967972    3.746918 C.ar      1 <1>        -0.184700 
     22 C          -2.915326   -2.684778    4.866516 C.ar      1 <1>        -0.127500 
     23 C          -1.980080   -3.190175    5.768967 C.ar      1 <1>        -0.176800 
     24 C          -0.608696   -2.985793    5.566147 C.ar      1 <1>         0.174700 
     25 C           0.406499   -3.494019    6.564143 C.3       1 <1>        -0.527700 
     26 C          -0.199887   -2.277749    4.430090 C.ar      1 <1>        -0.214900 
     27 C           0.704578    2.544212    1.792850 C.ar      1 <1>         0.798000 
     28 O           1.582717    2.580415    2.634307 O.2       1 <1>        -0.500400 
     29 N          -0.201353    3.571938    1.621075 N.ar      1 <1>        -0.697600 
     30 C          -1.268075    3.632840    0.722921 C.ar      1 <1>         0.606100 
     31 O          -2.036220    4.585132    0.737854 O.2       1 <1>        -0.505300 
     32 H          -4.485418    2.273585   -1.674564 H         1 <1>         0.148700 
     33 H          -3.702920    1.047880   -0.659384 H         1 <1>         0.145100 
     34 H          -4.095309    2.644785    0.014301 H         1 <1>         0.169500 
     35 H          -2.047817    2.138822   -2.225548 H         1 <1>         0.163200 
     36 H          -2.471480    3.721416   -1.552393 H         1 <1>         0.169300 
     37 H           1.167271   -2.099949   -1.333016 H         1 <1>         0.153500 
     38 H           3.376814   -2.617148   -2.335639 H         1 <1>         0.143400 
     39 H           4.665213   -0.834832   -3.481430 H         1 <1>         0.142000 
     40 H           4.867737    1.465668   -4.253927 H         1 <1>         0.137700 
     41 H           3.925783    3.738850   -4.526480 H         1 <1>         0.139700 
     42 H           1.658197    4.257351   -3.629477 H         1 <1>         0.142000 
     43 H           0.365838    2.546825   -2.444436 H         1 <1>         0.160600 
     44 H           2.165214    0.495817    1.739315 H         1 <1>         0.198000 
     45 H           1.216361   -0.497723    0.588568 H         1 <1>         0.159900 
     46 H          -1.461708   -0.366170    1.919299 H         1 <1>         0.143600 
     47 H          -0.494305   -1.772530    1.454322 H         1 <1>         0.145700 
     48 H          -3.225694   -1.566594    3.050088 H         1 <1>         0.121200 
     49 H          -3.976550   -2.843951    5.039131 H         1 <1>         0.128000 
     50 H          -2.316285   -3.744670    6.642388 H         1 <1>         0.120500 
     51 H           0.062443   -4.410377    7.055972 H         1 <1>         0.154300 
     52 H           0.593187   -2.752372    7.352306 H         1 <1>         0.168600 
     53 H           1.368405   -3.706091    6.085456 H         1 <1>         0.156500 
     54 H           0.857778   -2.103878    4.254932 H         1 <1>         0.136300 
     55 H          -0.100784    4.351590    2.261525 H         1 <1>         0.355500 
@<TRIPOS>BOND
     1    1   32 1    
     2    1   33 1    
     3    1   34 1    
     4    2    1 1    
     5    2   35 1    
     6   22   49 1    
     7   21   48 1    
     8    7   37 1    
     9    5    6 1    
    10    4    5 1    
    11    2   36 1    
    12    3    2 1    
    13   21   22 ar   
    14   22   23 ar   
    15   20   21 ar   
    16    6    7 ar   
    17    7    8 ar   
    18    8   38 1    
    19   19   47 1    
    20    6   15 ar   
    21    8    9 ar   
    22   19   46 1    
    23   23   50 1    
    24   24   23 ar   
    25   19   20 1    
    26   20   26 ar   
    27   18   19 1    
    28   14   43 1    
    29   15   14 ar   
    30   15   10 ar   
    31    4    3 ar   
    32    3   30 ar   
    33    9   39 1    
    34   10    9 ar   
    35   16    4 ar   
    36   14   13 ar   
    37   10   11 ar   
    38   17   45 1    
    39   26   24 ar   
    40   24   25 1    
    41   26   54 1    
    42   13   42 1    
    43   13   12 ar   
    44   11   12 ar   
    45   11   40 1    
    46   25   51 1    
    47   30   31 2    
    48   30   29 ar   
    49   17   18 1    
    50   12   41 1    
    51   16   17 1    
    52   16   27 ar   
    53   17   44 1    
    54   25   53 1    
    55   25   52 1    
    56   29   27 ar   
    57   29   55 1    
    58   27   28 2    
@<TRIPOS>SUBSTRUCTURE
     1 ****       32 TEMP              0 ****  ****    0 ROOT 
