#	Name:			SGF-2005-CPB-886-8A
#	Creating user name:	Administrator
#	Creation time:		Sun Jul 05 16:46:37 2020

#	Modifying user name:	Administrator
#	Modification time:	Sun Jul 05 16:48:40 2020

@<TRIPOS>MOLECULE
SGF-2005-CPB-886-8A
   42    44     1     0     0
SMALL
MULLIKEN_CHARGES
INVALID_CHARGES
Gaussian 16 #p B3LYP/6-31G* opt
@<TRIPOS>ATOM
      1 C          -3.880797    2.036090   -0.345673 C.3       1 <1>        -0.448700 
      2 C          -2.598366    2.482525   -1.070110 C.3       1 <1>        -0.320400 
      3 C          -1.383935    2.472417   -0.171125 C.ar      1 <1>         0.034500 
      4 C          -0.459027    1.472366   -0.079804 C.ar      1 <1>         0.027700 
      5 S          -0.717469   -0.048531   -1.015133 S.3       1 <1>         0.161600 
      6 C           0.252926    0.168491   -2.514890 C.ar      1 <1>        -0.092300 
      7 C           0.362428    1.421899   -3.174006 C.ar      1 <1>        -0.154700 
      8 C           1.040357    1.512126   -4.367231 C.ar      1 <1>        -0.184300 
      9 C           1.621855    0.368014   -4.977224 C.ar      1 <1>         0.133600 
     10 C           2.317386    0.434417   -6.213112 C.ar      1 <1>        -0.189300 
     11 C           2.868058   -0.697233   -6.772131 C.ar      1 <1>        -0.133500 
     12 C           2.748065   -1.947947   -6.117874 C.ar      1 <1>        -0.133700 
     13 C           2.079942   -2.045689   -4.917932 C.ar      1 <1>        -0.188900 
     14 C           1.499149   -0.896890   -4.316123 C.ar      1 <1>         0.145700 
     15 C           0.814691   -0.962371   -3.073038 C.ar      1 <1>        -0.231800 
     16 N           0.613304    1.520523    0.827904 N.ar      1 <1>        -0.528600 
     17 C           1.696611    0.510969    0.940245 C.3       1 <1>         0.086700 
     18 O           2.953640    1.010011    0.601744 O.3       1 <1>        -0.431900 
     19 C           3.186594    1.193078   -0.786373 C.3       1 <1>        -0.217200 
     20 C           0.709101    2.544532    1.787668 C.ar      1 <1>         0.793600 
     21 O           1.530531    2.541790    2.684869 O.2       1 <1>        -0.494800 
     22 N          -0.207749    3.568374    1.626134 N.ar      1 <1>        -0.699900 
     23 C          -1.257958    3.643641    0.714237 C.ar      1 <1>         0.608400 
     24 O          -2.004289    4.612948    0.701750 O.2       1 <1>        -0.503700 
     25 H          -4.079450    2.676823    0.518821 H         1 <1>         0.168500 
     26 H          -4.741194    2.101974   -1.020911 H         1 <1>         0.148800 
     27 H          -3.797911    0.999424   -0.000717 H         1 <1>         0.150200 
     28 H          -2.735051    3.510928   -1.420814 H         1 <1>         0.170700 
     29 H          -2.430789    1.849584   -1.944155 H         1 <1>         0.161200 
     30 H          -0.082058    2.306261   -2.729892 H         1 <1>         0.153500 
     31 H           1.128897    2.474256   -4.866132 H         1 <1>         0.143000 
     32 H           2.407438    1.396188   -6.712349 H         1 <1>         0.137100 
     33 H           3.397541   -0.634997   -7.718670 H         1 <1>         0.137800 
     34 H           3.186880   -2.833502   -6.569003 H         1 <1>         0.138100 
     35 H           1.987203   -3.005173   -4.415038 H         1 <1>         0.136800 
     36 H           0.739566   -1.920919   -2.565357 H         1 <1>         0.148100 
     37 H           1.406810   -0.343398    0.325075 H         1 <1>         0.169000 
     38 H           1.762640    0.228051    1.989852 H         1 <1>         0.188500 
     39 H           2.529914    1.960544   -1.216771 H         1 <1>         0.143800 
     40 H           4.223832    1.522107   -0.880913 H         1 <1>         0.166800 
     41 H           3.049423    0.258371   -1.347819 H         1 <1>         0.144100 
     42 H          -0.131287    4.326197    2.295723 H         1 <1>         0.355800 
@<TRIPOS>BOND
     1   10   32 1    
     2    8   31 1    
     3   10   11 ar   
     4    9   10 ar   
     5   23   24 2    
     6   11   33 1    
     7    8    9 ar   
     8    7    8 ar   
     9   19   40 1    
    10   22   42 1    
    11   19   39 1    
    12    7   30 1    
    13    2   28 1    
    14   12   11 ar   
    15   23   22 ar   
    16    3   23 ar   
    17   20   22 ar   
    18   14    9 ar   
    19    6    7 ar   
    20   19   41 1    
    21   18   19 1    
    22   20   21 2    
    23   16   20 ar   
    24    3    2 1    
    25    4    3 ar   
    26    2   29 1    
    27    2    1 1    
    28   17   18 1    
    29    4   16 ar   
    30   16   17 1    
    31   12   34 1    
    32   13   12 ar   
    33    5    4 1    
    34   14   13 ar   
    35   15   14 ar   
    36    6   15 ar   
    37    6    5 1    
    38    1   25 1    
    39   17   38 1    
    40   17   37 1    
    41    1   26 1    
    42    1   27 1    
    43   13   35 1    
    44   15   36 1    
@<TRIPOS>SUBSTRUCTURE
     1 ****       31 TEMP              0 ****  ****    0 ROOT 
