#	Name:			SGF-2005-CPB-886-7P
#	Creating user name:	Administrator
#	Creation time:		Sun Jul 05 16:46:36 2020

#	Modifying user name:	Administrator
#	Modification time:	Sun Jul 05 16:48:40 2020

@<TRIPOS>MOLECULE
SGF-2005-CPB-886-7P
   58    61     1     0     0
SMALL
MULLIKEN_CHARGES
INVALID_CHARGES
Gaussian 16 #p B3LYP/6-31G* opt
@<TRIPOS>ATOM
      1 C          -4.128928    0.580844   -0.829595 C.3       1 <1>        -0.446400 
      2 C          -3.950415    2.104108   -0.786914 C.3       1 <1>        -0.064400 
      3 C          -4.428897    2.675000    0.555101 C.3       1 <1>        -0.450900 
      4 C          -2.518069    2.565867   -1.195367 C.3       1 <1>        -0.341700 
      5 C          -1.396599    2.466987   -0.177969 C.ar      1 <1>         0.045500 
      6 C          -0.455926    1.477787   -0.086963 C.ar      1 <1>         0.008700 
      7 S          -0.486455    0.114631   -1.249079 S.3       1 <1>         0.192300 
      8 C          -0.851723   -1.329654   -0.234372 C.ar      1 <1>        -0.128400 
      9 C          -1.434799   -1.226173    1.011339 C.ar      1 <1>        -0.154100 
     10 C          -1.750463   -2.384662    1.756653 C.ar      1 <1>        -0.130600 
     11 C          -1.498533   -3.634784    1.244305 C.ar      1 <1>        -0.194400 
     12 C          -0.907679   -3.780504   -0.038052 C.ar      1 <1>         0.147500 
     13 C          -0.643955   -5.064256   -0.586986 C.ar      1 <1>        -0.192100 
     14 C          -0.064546   -5.204105   -1.826565 C.ar      1 <1>        -0.131300 
     15 C           0.286009   -4.055616   -2.573744 C.ar      1 <1>        -0.136400 
     16 C           0.045434   -2.795584   -2.072871 C.ar      1 <1>        -0.207600 
     17 C          -0.561640   -2.613015   -0.800136 C.ar      1 <1>         0.119900 
     18 N           0.616148    1.527102    0.828259 N.ar      1 <1>        -0.507000 
     19 C           1.824325    0.662220    0.702362 C.3       1 <1>         0.065300 
     20 O           1.701967   -0.592278    1.295057 O.3       1 <1>        -0.449500 
     21 C           2.005998   -0.655840    2.703583 C.3       1 <1>        -0.133700 
     22 C           3.492773   -0.599957    2.978341 C.ar      1 <1>         0.124600 
     23 C           4.328405   -1.625399    2.511632 C.ar      1 <1>        -0.166200 
     24 C           5.698932   -1.590894    2.758732 C.ar      1 <1>        -0.131600 
     25 C           6.253690   -0.527655    3.478028 C.ar      1 <1>        -0.127400 
     26 C           5.431703    0.499662    3.940424 C.ar      1 <1>        -0.131400 
     27 C           4.057437    0.465875    3.687929 C.ar      1 <1>        -0.182100 
     28 C           0.698511    2.536522    1.793602 C.ar      1 <1>         0.782500 
     29 O           1.566999    2.582325    2.653570 O.2       1 <1>        -0.518900 
     30 N          -0.273388    3.508928    1.691820 N.ar      1 <1>        -0.694800 
     31 C          -1.264405    3.633124    0.716013 C.ar      1 <1>         0.607900 
     32 O          -1.951363    4.643816    0.673302 O.2       1 <1>        -0.503300 
     33 H          -3.841753    0.167332   -1.802880 H         1 <1>         0.144400 
     34 H          -5.177657    0.316102   -0.647578 H         1 <1>         0.137500 
     35 H          -3.527652    0.076993   -0.065878 H         1 <1>         0.148100 
     36 H          -4.599632    2.523923   -1.569539 H         1 <1>         0.128200 
     37 H          -3.846441    2.265707    1.390855 H         1 <1>         0.129100 
     38 H          -4.337295    3.763510    0.589930 H         1 <1>         0.173400 
     39 H          -5.477771    2.405611    0.727764 H         1 <1>         0.135600 
     40 H          -2.237413    2.032024   -2.106874 H         1 <1>         0.156500 
     41 H          -2.581261    3.629446   -1.448911 H         1 <1>         0.171800 
     42 H          -1.651792   -0.251620    1.434916 H         1 <1>         0.142800 
     43 H          -2.205158   -2.272830    2.737117 H         1 <1>         0.136500 
     44 H          -1.750159   -4.527889    1.810524 H         1 <1>         0.133700 
     45 H          -0.911929   -5.940675   -0.001712 H         1 <1>         0.133600 
     46 H           0.129466   -6.193292   -2.231999 H         1 <1>         0.134200 
     47 H           0.753232   -4.168397   -3.548179 H         1 <1>         0.134800 
     48 H           0.334621   -1.928211   -2.657909 H         1 <1>         0.154200 
     49 H           2.645872    1.241142    1.127531 H         1 <1>         0.188800 
     50 H           1.983439    0.493004   -0.360753 H         1 <1>         0.186200 
     51 H           1.484051    0.140082    3.243837 H         1 <1>         0.161700 
     52 H           1.589151   -1.618425    3.014431 H         1 <1>         0.157200 
     53 H           3.896143   -2.449912    1.949644 H         1 <1>         0.135900 
     54 H           6.335911   -2.393265    2.395236 H         1 <1>         0.129000 
     55 H           7.322576   -0.502056    3.674207 H         1 <1>         0.128900 
     56 H           5.858218    1.332292    4.493842 H         1 <1>         0.130900 
     57 H           3.418524    1.275366    4.029371 H         1 <1>         0.160800 
     58 H          -0.186704    4.278791    2.346117 H         1 <1>         0.356300 
@<TRIPOS>BOND
     1   15   47 1    
     2   16   48 1    
     3   19   50 1    
     4    4   40 1    
     5   16   15 ar   
     6   15   14 ar   
     7   17   16 ar   
     8    4   41 1    
     9    6    7 1    
    10    7    8 1    
    11   19   49 1    
    12    5    4 1    
    13    4    2 1    
    14   19   18 1    
    15   20   19 1    
    16   14   46 1    
    17   24   54 1    
    18    6    5 ar   
    19   18    6 ar   
    20   25   55 1    
    21    5   31 ar   
    22   14   13 ar   
    23   18   28 ar   
    24   24   25 ar   
    25   23   24 ar   
    26    2   36 1    
    27   26   25 ar   
    28    1   33 1    
    29   31   32 2    
    30   30   31 ar   
    31    8   17 ar   
    32   17   12 ar   
    33   21   20 1    
    34   23   53 1    
    35   28   30 ar   
    36   28   29 2    
    37   22   23 ar   
    38    8    9 ar   
    39    2    1 1    
    40    2    3 1    
    41   30   58 1    
    42   26   56 1    
    43   27   26 ar   
    44   22   27 ar   
    45   22   21 1    
    46    1   35 1    
    47    1   34 1    
    48   27   57 1    
    49   13   12 ar   
    50   13   45 1    
    51   12   11 ar   
    52   21   51 1    
    53   21   52 1    
    54    3   38 1    
    55    3   37 1    
    56    3   39 1    
    57    9   42 1    
    58    9   10 ar   
    59   11   10 ar   
    60   11   44 1    
    61   10   43 1    
@<TRIPOS>SUBSTRUCTURE
     1 ****       54 TEMP              0 ****  ****    0 ROOT 
