#	Name:			GSX-2011-BMC-7093-1o
#	Creating user name:	Administrator
#	Creation time:		Sun Jul 05 16:04:24 2020

#	Modifying user name:	Administrator
#	Modification time:	Sun Jul 05 16:09:16 2020

@<TRIPOS>MOLECULE
GSX-2011-BMC-7093-1o
   35    37     1     0     0
SMALL
MULLIKEN_CHARGES
INVALID_CHARGES

@<TRIPOS>ATOM
      1 C          -0.208575    5.023582   -0.084642 C.3       1 <1>        -0.514200 
      2 C           0.148314    3.561633   -0.120561 C.ar      1 <1>         0.345000 
      3 C          -0.811891    2.575007   -0.246691 C.ar      1 <1>        -0.266800 
      4 C          -0.359361    1.232464   -0.268680 C.ar      1 <1>         0.583200 
      5 N          -1.247805    0.200894   -0.413078 N.pl3     1 <1>        -0.667700 
      6 C          -0.882203   -1.179174   -0.265444 C.3       1 <1>         0.061800 
      7 C          -1.725596   -2.195105   -0.990821 C.3       1 <1>        -0.343200 
      8 C          -0.315033   -1.918056   -1.449736 C.3       1 <1>        -0.287800 
      9 N           0.938167    0.931970   -0.164894 N.ar      1 <1>        -0.593300 
     10 C           1.779830    1.978744   -0.052583 C.ar      1 <1>         0.699500 
     11 N           3.103622    1.583110    0.041193 N.pl3     1 <1>        -0.773600 
     12 C           4.291438    2.295581    0.175758 C.ar      1 <1>         0.384400 
     13 C           5.482067    1.540609    0.237214 C.ar      1 <1>        -0.206500 
     14 C           6.713682    2.158487    0.371453 C.ar      1 <1>        -0.141300 
     15 C           6.796967    3.560388    0.449641 C.ar      1 <1>         0.129300 
     16 C           8.065739    4.206046    0.588817 C.1       1 <1>         0.224600 
     17 N           9.099169    4.730463    0.702277 N.1       1 <1>        -0.489100 
     18 C           5.612129    4.313067    0.388295 C.ar      1 <1>        -0.154600 
     19 C           4.373505    3.699502    0.253271 C.ar      1 <1>        -0.159800 
     20 N           1.466953    3.273766   -0.022575 N.ar      1 <1>        -0.553900 
     21 H           0.142906    5.474428    0.850364 H         1 <1>         0.175800 
     22 H          -1.287327    5.182416   -0.169097 H         1 <1>         0.152300 
     23 H           0.291753    5.553464   -0.903101 H         1 <1>         0.176300 
     24 H          -1.866506    2.816551   -0.330749 H         1 <1>         0.125000 
     25 H          -2.222846    0.432670   -0.279432 H         1 <1>         0.327800 
     26 H          -0.493333   -1.453885    0.714821 H         1 <1>         0.157500 
     27 H          -2.537485   -1.824260   -1.611181 H         1 <1>         0.156900 
     28 H          -1.940808   -3.130974   -0.483430 H         1 <1>         0.160800 
     29 H          -0.184395   -1.351264   -2.365815 H         1 <1>         0.166800 
     30 H           0.453106   -2.661857   -1.259295 H         1 <1>         0.156500 
     31 H           3.190413    0.575810    0.000196 H         1 <1>         0.341900 
     32 H           5.430816    0.455668    0.178059 H         1 <1>         0.132500 
     33 H           7.619188    1.561833    0.416914 H         1 <1>         0.154100 
     34 H           5.666712    5.395738    0.447463 H         1 <1>         0.154000 
     35 H           3.465177    4.282327    0.205278 H         1 <1>         0.185900 
@<TRIPOS>BOND
     1    6   26 1    
     2    1   21 1    
     3    7   28 1    
     4    5    6 1    
     5    6    7 1    
     6    6    8 1    
     7    5   25 1    
     8   13   32 1    
     9   11   31 1    
    10    4    5 1    
    11    4    9 ar   
    12   10    9 ar   
    13    3    4 ar   
    14   14   33 1    
    15   13   14 ar   
    16   12   13 ar   
    17   10   11 1    
    18   11   12 1    
    19   20   10 ar   
    20   14   15 ar   
    21   12   19 ar   
    22    3   24 1    
    23    2    3 ar   
    24   15   16 1    
    25   18   15 ar   
    26    2   20 ar   
    27   19   18 ar   
    28   19   35 1    
    29    2    1 1    
    30   16   17 3    
    31   18   34 1    
    32    7   27 1    
    33    7    8 1    
    34    1   22 1    
    35    1   23 1    
    36    8   30 1    
    37    8   29 1    
@<TRIPOS>SUBSTRUCTURE
     1 ****       31 TEMP              0 ****  ****    0 ROOT 
