#	Name:			GSX-2011-BMC-7093-1l
#	Creating user name:	Administrator
#	Creation time:		Sun Jul 05 16:04:24 2020

#	Modifying user name:	Administrator
#	Modification time:	Sun Jul 05 16:09:16 2020

@<TRIPOS>MOLECULE
GSX-2011-BMC-7093-1l
   35    37     1     0     0
SMALL
MULLIKEN_CHARGES
INVALID_CHARGES

@<TRIPOS>ATOM
      1 C          -2.293539    2.932640   -0.368288 C.3       1 <1>        -0.559300 
      2 C          -0.835154    2.583709   -0.248598 C.ar      1 <1>         0.115000 
      3 C           0.155714    3.538466   -0.121037 C.ar      1 <1>         0.004700 
      4 N           1.471855    3.276114   -0.021856 N.ar      1 <1>        -0.497600 
      5 C           1.785897    1.980157   -0.052039 C.ar      1 <1>         0.698000 
      6 N           3.108746    1.580211    0.040980 N.pl3     1 <1>        -0.770600 
      7 C           4.297286    2.291852    0.173021 C.ar      1 <1>         0.384700 
      8 C           5.487629    1.536491    0.235369 C.ar      1 <1>        -0.206800 
      9 C           6.719451    2.154374    0.366819 C.ar      1 <1>        -0.141300 
     10 C           6.803155    3.556537    0.441065 C.ar      1 <1>         0.129000 
     11 C           8.072265    4.201947    0.577208 C.1       1 <1>         0.224600 
     12 N           9.106235    4.726068    0.688183 N.1       1 <1>        -0.489400 
     13 C           5.618451    4.309440    0.379018 C.ar      1 <1>        -0.154400 
     14 C           4.379505    3.696025    0.246915 C.ar      1 <1>        -0.160500 
     15 N           0.935575    0.942729   -0.164065 N.ar      1 <1>        -0.592000 
     16 C          -0.362724    1.238249   -0.267864 C.ar      1 <1>         0.516500 
     17 N          -1.242077    0.197951   -0.413391 N.pl3     1 <1>        -0.665600 
     18 C          -0.853526   -1.178634   -0.285459 C.3       1 <1>         0.063200 
     19 C          -1.700145   -2.200251   -0.998421 C.3       1 <1>        -0.343700 
     20 C          -0.304691   -1.899704   -1.488814 C.3       1 <1>        -0.288600 
     21 H          -2.890023    2.524143    0.460857 H         1 <1>         0.157100 
     22 H          -2.432133    4.018297   -0.357978 H         1 <1>         0.170500 
     23 H          -2.731619    2.553746   -1.302010 H         1 <1>         0.164600 
     24 H          -0.114811    4.594054   -0.097964 H         1 <1>         0.138200 
     25 H           3.194301    0.572924    0.000188 H         1 <1>         0.341500 
     26 H           5.435899    0.451444    0.179226 H         1 <1>         0.131800 
     27 H           7.624908    1.557679    0.413016 H         1 <1>         0.153800 
     28 H           5.673328    5.392249    0.435305 H         1 <1>         0.154500 
     29 H           3.471571    4.279831    0.198635 H         1 <1>         0.189100 
     30 H          -2.217730    0.409877   -0.260170 H         1 <1>         0.332400 
     31 H          -0.436210   -1.453484    0.682611 H         1 <1>         0.158700 
     32 H          -1.890089   -3.143236   -0.494220 H         1 <1>         0.161400 
     33 H          -2.531450   -1.836282   -1.596903 H         1 <1>         0.156700 
     34 H           0.477875   -2.634371   -1.323314 H         1 <1>         0.157200 
     35 H          -0.204170   -1.324273   -2.403448 H         1 <1>         0.166500 
@<TRIPOS>BOND
     1   18   31 1    
     2    1   21 1    
     3   19   32 1    
     4   17   18 1    
     5   18   19 1    
     6   18   20 1    
     7   17   30 1    
     8    8   26 1    
     9    6   25 1    
    10   16   17 1    
    11   16   15 ar   
    12   15    5 ar   
    13    9   27 1    
    14    8    9 ar   
    15    7    8 ar   
    16    5    6 1    
    17    6    7 1    
    18    2   16 ar   
    19    9   10 ar   
    20    5    4 ar   
    21    7   14 ar   
    22    2    1 1    
    23    2    3 ar   
    24   10   11 1    
    25   10   13 ar   
    26    4    3 ar   
    27   14   13 ar   
    28   14   29 1    
    29   11   12 3    
    30   19   33 1    
    31   19   20 1    
    32    1   22 1    
    33    1   23 1    
    34    3   24 1    
    35   13   28 1    
    36   20   34 1    
    37   20   35 1    
@<TRIPOS>SUBSTRUCTURE
     1 ****       25 TEMP              0 ****  ****    0 ROOT 
