#	Name:			GSX-2011-BMC-7093-1g
#	Creating user name:	Administrator
#	Creation time:		Sun Jul 05 16:04:23 2020

#	Modifying user name:	Administrator
#	Modification time:	Sun Jul 05 16:09:16 2020

@<TRIPOS>MOLECULE
GSX-2011-BMC-7093-1g
   41    43     1     0     0
SMALL
MULLIKEN_CHARGES
INVALID_CHARGES

@<TRIPOS>ATOM
      1 N           7.111648   -3.838973    0.072139 N.1       1 <1>        -0.488600 
      2 C           6.418697   -2.903142    0.067585 C.1       1 <1>         0.224600 
      3 C           5.567326   -1.753899    0.061854 C.ar      1 <1>         0.129200 
      4 C           4.173599   -1.895786   -0.044187 C.ar      1 <1>        -0.153500 
      5 C           3.334971   -0.789023   -0.051733 C.ar      1 <1>        -0.156700 
      6 C           3.879081    0.506130    0.047924 C.ar      1 <1>         0.385700 
      7 N           3.128794    1.676555    0.049635 N.pl3     1 <1>        -0.769000 
      8 C           1.771027    1.928562   -0.054906 C.ar      1 <1>         0.698700 
      9 N           1.487050    3.246950   -0.021857 N.ar      1 <1>        -0.510600 
     10 C           0.186592    3.539244   -0.118900 C.ar      1 <1>         0.059000 
     11 C          -0.817378    2.591414   -0.245325 C.ar      1 <1>        -0.213600 
     12 C          -0.397983    1.243104   -0.273541 C.ar      1 <1>         0.567200 
     13 N          -1.250565    0.193944   -0.410603 N.pl3     1 <1>        -0.665700 
     14 C          -2.702087    0.266163   -0.545576 C.3       1 <1>         0.068800 
     15 C          -3.201746   -1.040949   -1.202861 C.3       1 <1>        -0.298300 
     16 C          -4.681877   -1.287962   -0.885677 C.3       1 <1>        -0.271400 
     17 C          -4.896035   -1.527836    0.628852 C.3       1 <1>        -0.261500 
     18 C          -3.858408   -0.767046    1.488400 C.3       1 <1>        -0.272100 
     19 C          -3.428103    0.536492    0.804831 C.3       1 <1>        -0.271900 
     20 N           0.910294    0.917813   -0.172373 N.ar      1 <1>        -0.586800 
     21 C           5.279520    0.646891    0.155006 C.ar      1 <1>        -0.205300 
     22 C           6.110475   -0.460144    0.161929 C.ar      1 <1>        -0.141000 
     23 H           3.745512   -2.890473   -0.121850 H         1 <1>         0.151900 
     24 H           2.264488   -0.904161   -0.134622 H         1 <1>         0.172200 
     25 H           3.649484    2.540952    0.129589 H         1 <1>         0.345700 
     26 H          -0.064254    4.598748   -0.091337 H         1 <1>         0.145800 
     27 H          -1.858273    2.879755   -0.310980 H         1 <1>         0.138900 
     28 H          -0.806422   -0.714481   -0.404147 H         1 <1>         0.330000 
     29 H          -2.924557    1.096209   -1.228543 H         1 <1>         0.144800 
     30 H          -2.614282   -1.887853   -0.817575 H         1 <1>         0.133300 
     31 H          -3.022038   -1.005023   -2.282991 H         1 <1>         0.153100 
     32 H          -5.054734   -2.140816   -1.463838 H         1 <1>         0.143800 
     33 H          -5.265537   -0.418548   -1.216881 H         1 <1>         0.138200 
     34 H          -4.833674   -2.600808    0.848350 H         1 <1>         0.138700 
     35 H          -5.911032   -1.216513    0.904584 H         1 <1>         0.139200 
     36 H          -2.970333   -1.393041    1.649704 H         1 <1>         0.135700 
     37 H          -4.266089   -0.560887    2.484464 H         1 <1>         0.142400 
     38 H          -4.316833    1.153260    0.613160 H         1 <1>         0.135100 
     39 H          -2.773239    1.125751    1.455472 H         1 <1>         0.152300 
     40 H           5.711859    1.641810    0.232380 H         1 <1>         0.136100 
     41 H           7.185064   -0.332383    0.244443 H         1 <1>         0.155500 
@<TRIPOS>BOND
     1   15   31 1    
     2   16   32 1    
     3   15   16 1    
     4   15   30 1    
     5   14   15 1    
     6   16   33 1    
     7   14   29 1    
     8   16   17 1    
     9   13   14 1    
    10   14   19 1    
    11   13   28 1    
    12   12   13 1    
    13   11   27 1    
    14   12   11 ar   
    15   20   12 ar   
    16   10   11 ar   
    17    4   23 1    
    18    8   20 ar   
    19    5   24 1    
    20    5    4 ar   
    21    4    3 ar   
    22    6    5 ar   
    23   10   26 1    
    24    9   10 ar   
    25    8    9 ar   
    26    7    8 1    
    27    2    1 3    
    28    3    2 1    
    29    3   22 ar   
    30    6    7 1    
    31    6   21 ar   
    32    7   25 1    
    33   22   21 ar   
    34   22   41 1    
    35   21   40 1    
    36   17   34 1    
    37   17   35 1    
    38   17   18 1    
    39   19   38 1    
    40   19   39 1    
    41   19   18 1    
    42   18   36 1    
    43   18   37 1    
@<TRIPOS>SUBSTRUCTURE
     1 ****        1 TEMP              0 ****  ****    0 ROOT 
