#	Name:			JKJ-2018-EJMC-726-3-4q
#	Creating user name:	Administrator
#	Creation time:		Sun Jul 05 16:04:59 2020

#	Modifying user name:	Administrator
#	Modification time:	Sun Jul 05 16:09:16 2020

@<TRIPOS>MOLECULE
JKJ-2018-EJMC-726-3-4q
   54    57     1     0     0
SMALL
MULLIKEN_CHARGES
INVALID_CHARGES

@<TRIPOS>ATOM
      1 C          -0.157262   -3.179524   -1.432709 C.ar      1 <1>        -0.275400 
      2 C          -0.358174   -1.796953   -1.474564 C.ar      1 <1>         0.201800 
      3 C          -1.010751   -1.185867   -0.386767 C.ar      1 <1>         0.177100 
      4 C          -1.469662   -1.947315    0.705511 C.ar      1 <1>         0.185800 
      5 C          -1.260423   -3.326952    0.697504 C.ar      1 <1>        -0.273400 
      6 C          -0.601745   -3.967061   -0.361687 C.ar      1 <1>         0.132000 
      7 C           0.089498   -1.002353   -2.675138 C.3       1 <1>        -0.535700 
      8 C          -2.165657   -1.286663    1.872349 C.3       1 <1>        -0.539300 
      9 N          -1.288933    0.214742   -0.407057 N.pl3     1 <1>        -0.765600 
     10 C          -0.377026    1.232508   -0.274449 C.ar      1 <1>         0.574100 
     11 C          -0.811286    2.575609   -0.247564 C.ar      1 <1>        -0.227300 
     12 C           0.179122    3.534104   -0.119006 C.ar      1 <1>         0.067500 
     13 N           1.482715    3.247759   -0.020256 N.ar      1 <1>        -0.506400 
     14 C           1.778216    1.934627   -0.054997 C.ar      1 <1>         0.690100 
     15 N           0.922450    0.912844   -0.178184 N.ar      1 <1>        -0.568600 
     16 N           3.132572    1.685393    0.053643 N.pl3     1 <1>        -0.769200 
     17 C           3.879545    0.511154    0.119521 C.ar      1 <1>         0.382100 
     18 C           5.280977    0.657232    0.190377 C.ar      1 <1>        -0.204600 
     19 C           6.110504   -0.448131    0.270472 C.ar      1 <1>        -0.141000 
     20 C           5.563211   -1.743737    0.282144 C.ar      1 <1>         0.130900 
     21 C           4.167970   -1.890212    0.211547 C.ar      1 <1>        -0.159000 
     22 C           3.329736   -0.784969    0.131040 C.ar      1 <1>        -0.168400 
     23 C           6.416066   -2.889252    0.367090 C.1       1 <1>         0.226400 
     24 N           7.114424   -3.818188    0.437747 N.1       1 <1>        -0.485300 
     25 C          -0.396857   -5.437919   -0.357466 C.ar      1 <1>         0.081700 
     26 C           0.770154   -6.004850   -0.891228 C.ar      1 <1>        -0.212900 
     27 C           0.957521   -7.387585   -0.892507 C.ar      1 <1>        -0.010100 
     28 C          -0.012662   -8.235094   -0.353404 C.ar      1 <1>        -0.159200 
     29 C          -1.174868   -7.683081    0.183362 C.ar      1 <1>        -0.138100 
     30 C          -1.366832   -6.303076    0.178132 C.ar      1 <1>        -0.162000 
     31 C           2.193407   -7.966550   -1.529241 C.3       1 <1>         0.786700 
     32 F           2.025921   -8.144359   -2.861935 F         1 <1>        -0.262600 
     33 F           2.510659   -9.173042   -1.010147 F         1 <1>        -0.270500 
     34 F           3.265875   -7.160345   -1.375000 F         1 <1>        -0.265600 
     35 H           0.317685   -3.658696   -2.284474 H         1 <1>         0.135700 
     36 H          -1.587751   -3.909686    1.554220 H         1 <1>         0.130500 
     37 H           0.984795   -0.414028   -2.445407 H         1 <1>         0.186800 
     38 H          -0.684750   -0.296440   -2.995031 H         1 <1>         0.159800 
     39 H           0.321305   -1.664410   -3.514570 H         1 <1>         0.156400 
     40 H          -1.579963   -0.449168    2.268072 H         1 <1>         0.175600 
     41 H          -2.326976   -2.001898    2.683757 H         1 <1>         0.165800 
     42 H          -3.151311   -0.887224    1.593812 H         1 <1>         0.151400 
     43 H          -2.252399    0.483469   -0.256933 H         1 <1>         0.332200 
     44 H          -1.859162    2.842870   -0.332868 H         1 <1>         0.132900 
     45 H          -0.078460    4.591752   -0.093795 H         1 <1>         0.149100 
     46 H           3.655240    2.549931    0.117723 H         1 <1>         0.346700 
     47 H           5.715889    1.653970    0.181700 H         1 <1>         0.136300 
     48 H           7.186537   -0.317636    0.324781 H         1 <1>         0.156500 
     49 H           3.735597   -2.885870    0.222745 H         1 <1>         0.157900 
     50 H           2.258059   -0.910326    0.081374 H         1 <1>         0.197200 
     51 H           1.551909   -5.363328   -1.283869 H         1 <1>         0.157400 
     52 H           0.144449   -9.308306   -0.349605 H         1 <1>         0.155800 
     53 H          -1.938661   -8.332770    0.600997 H         1 <1>         0.141700 
     54 H          -2.290176   -5.889857    0.573332 H         1 <1>         0.138600 
@<TRIPOS>BOND
     1    8   41 1    
     2    8   40 1    
     3    8   42 1    
     4    4    8 1    
     5    5   36 1    
     6   29   53 1    
     7   30   54 1    
     8    4    5 ar   
     9    5    6 ar   
    10   30   29 ar   
    11   29   28 ar   
    12    3    4 ar   
    13   23   24 3    
    14   25   30 ar   
    15   20   23 1    
    16   28   52 1    
    17   21   49 1    
    18   27   28 ar   
    19   21   20 ar   
    20   19   20 ar   
    21   22   21 ar   
    22   19   48 1    
    23   18   19 ar   
    24   22   50 1    
    25   17   22 ar   
    26    6   25 1    
    27   25   26 ar   
    28   17   18 ar   
    29   18   47 1    
    30   16   17 1    
    31    6    1 ar   
    32   31   33 1    
    33   16   46 1    
    34   14   16 1    
    35   26   27 ar   
    36   27   31 1    
    37   15   14 ar   
    38   14   13 ar   
    39    9    3 1    
    40    3    2 ar   
    41   10   15 ar   
    42   26   51 1    
    43    9   43 1    
    44   13   12 ar   
    45   10    9 1    
    46   10   11 ar   
    47   12   11 ar   
    48   12   45 1    
    49   11   44 1    
    50   31   34 1    
    51   31   32 1    
    52    1    2 ar   
    53    1   35 1    
    54    2    7 1    
    55    7   37 1    
    56    7   38 1    
    57    7   39 1    
@<TRIPOS>SUBSTRUCTURE
     1 ****       24 TEMP              0 ****  ****    0 ROOT 
