#	Name:			JKJ-2018-EJMC-726-3-4i
#	Creating user name:	Administrator
#	Creation time:		Sun Jul 05 16:04:59 2020

#	Modifying user name:	Administrator
#	Modification time:	Sun Jul 05 16:09:16 2020

@<TRIPOS>MOLECULE
JKJ-2018-EJMC-726-3-4i
   51    54     1     0     0
SMALL
MULLIKEN_CHARGES
INVALID_CHARGES

@<TRIPOS>ATOM
      1 C          -1.214006   -3.311285    0.761831 C.ar      1 <1>        -0.259600 
      2 C          -1.453301   -1.936986    0.735944 C.ar      1 <1>         0.184300 
      3 C          -0.993406   -1.186024   -0.362866 C.ar      1 <1>         0.173700 
      4 C          -0.320050   -1.804188   -1.432773 C.ar      1 <1>         0.201700 
      5 C          -0.083719   -3.179478   -1.356178 C.ar      1 <1>        -0.274400 
      6 C          -0.515575   -3.954456   -0.270500 C.ar      1 <1>         0.139000 
      7 C          -2.186435   -1.270390    1.876609 C.3       1 <1>        -0.539700 
      8 C           0.119852   -1.025919   -2.647179 C.3       1 <1>        -0.535200 
      9 N          -1.285853    0.212071   -0.407453 N.pl3     1 <1>        -0.763300 
     10 C          -0.378557    1.232793   -0.274231 C.ar      1 <1>         0.573600 
     11 C          -0.811605    2.576670   -0.249073 C.ar      1 <1>        -0.226100 
     12 C           0.179089    3.534480   -0.119035 C.ar      1 <1>         0.066700 
     13 N           1.483479    3.248769   -0.018881 N.ar      1 <1>        -0.507000 
     14 C           1.777383    1.935736   -0.054018 C.ar      1 <1>         0.689400 
     15 N           0.921584    0.915027   -0.176372 N.ar      1 <1>        -0.568200 
     16 N           3.132310    1.682039    0.051194 N.pl3     1 <1>        -0.769100 
     17 C           3.872500    0.503200    0.094942 C.ar      1 <1>         0.381700 
     18 C           5.276865    0.636713    0.128574 C.ar      1 <1>        -0.204200 
     19 C           6.099152   -0.476066    0.180091 C.ar      1 <1>        -0.141300 
     20 C           5.541639   -1.767240    0.200543 C.ar      1 <1>         0.130500 
     21 C           4.143495   -1.900895    0.171521 C.ar      1 <1>        -0.160700 
     22 C           3.312889   -0.788971    0.119301 C.ar      1 <1>        -0.167800 
     23 C           6.382736   -2.923238    0.248702 C.1       1 <1>         0.224600 
     24 N           7.065865   -3.865511    0.285591 N.1       1 <1>        -0.488500 
     25 C          -0.210609   -5.407157   -0.225269 C.ar      1 <1>         0.009500 
     26 C           1.027187   -5.903705   -0.672890 C.ar      1 <1>        -0.182000 
     27 C           1.328932   -7.263943   -0.649158 C.ar      1 <1>        -0.131800 
     28 C           0.388508   -8.178239   -0.171422 C.ar      1 <1>        -0.128800 
     29 C          -0.849513   -7.722337    0.280391 C.ar      1 <1>        -0.194700 
     30 C          -1.123087   -6.361376    0.246688 C.ar      1 <1>         0.324900 
     31 F          -2.341419   -5.958534    0.681939 F         1 <1>        -0.295500 
     32 H          -1.562317   -3.886045    1.612573 H         1 <1>         0.137300 
     33 H           0.417722   -3.665337   -2.188774 H         1 <1>         0.132100 
     34 H          -3.172425   -0.892419    1.570666 H         1 <1>         0.150700 
     35 H          -1.624189   -0.417271    2.273515 H         1 <1>         0.171800 
     36 H          -2.354384   -1.977023    2.694056 H         1 <1>         0.167500 
     37 H           0.362654   -1.700603   -3.473386 H         1 <1>         0.154100 
     38 H           1.006353   -0.420446   -2.427269 H         1 <1>         0.184300 
     39 H          -0.663481   -0.337299   -2.982462 H         1 <1>         0.158800 
     40 H          -2.251140    0.475712   -0.259843 H         1 <1>         0.332000 
     41 H          -1.859259    2.844748   -0.334424 H         1 <1>         0.133000 
     42 H          -0.078574    4.592085   -0.093685 H         1 <1>         0.148400 
     43 H           3.660162    2.543796    0.108956 H         1 <1>         0.346200 
     44 H           5.720224    1.629583    0.110956 H         1 <1>         0.136100 
     45 H           7.177336   -0.354281    0.203613 H         1 <1>         0.155700 
     46 H           3.702012   -2.892394    0.193828 H         1 <1>         0.156700 
     47 H           2.239443   -0.906297    0.099542 H         1 <1>         0.200700 
     48 H           1.772410   -5.196298   -1.025075 H         1 <1>         0.143900 
     49 H           2.300206   -7.606326   -0.993609 H         1 <1>         0.141000 
     50 H           0.614958   -9.240174   -0.145169 H         1 <1>         0.140700 
     51 H          -1.610660   -8.400034    0.653269 H         1 <1>         0.147000 
@<TRIPOS>BOND
     1    7   36 1    
     2    7   35 1    
     3    7   34 1    
     4    2    7 1    
     5    1   32 1    
     6    2    1 ar   
     7    1    6 ar   
     8    3    2 ar   
     9   30   31 1    
    10   29   51 1    
    11   23   24 3    
    12   20   23 1    
    13   30   29 ar   
    14   29   28 ar   
    15   19   45 1    
    16   25   30 ar   
    17   19   20 ar   
    18   21   20 ar   
    19   18   19 ar   
    20   21   46 1    
    21   22   21 ar   
    22   16   43 1    
    23   18   44 1    
    24   17   18 ar   
    25   17   22 ar   
    26   22   47 1    
    27   16   17 1    
    28   14   16 1    
    29   14   13 ar   
    30   12   13 ar   
    31   15   14 ar   
    32   12   42 1    
    33   11   12 ar   
    34   10   15 ar   
    35   10   11 ar   
    36   11   41 1    
    37   28   50 1    
    38   28   27 ar   
    39    9   40 1    
    40    9   10 1    
    41    6   25 1    
    42   25   26 ar   
    43    6    5 ar   
    44    3    9 1    
    45    3    4 ar   
    46   27   26 ar   
    47   27   49 1    
    48   26   48 1    
    49    5    4 ar   
    50    5   33 1    
    51    4    8 1    
    52    8   38 1    
    53    8   39 1    
    54    8   37 1    
@<TRIPOS>SUBSTRUCTURE
     1 ****       51 TEMP              0 ****  ****    0 ROOT 
