#	Name:			JKJ-2018-EJMC-726-3-4t
#	Creating user name:	Administrator
#	Creation time:		Sun Jul 05 16:05:00 2020

#	Modifying user name:	Administrator
#	Modification time:	Sun Jul 05 16:09:16 2020

@<TRIPOS>MOLECULE
JKJ-2018-EJMC-726-3-4t
   57    60     1     0     0
SMALL
MULLIKEN_CHARGES
INVALID_CHARGES

@<TRIPOS>ATOM
      1 C          -0.893365   -3.174613   -1.881099 C.ar      1 <1>        -0.272700 
      2 C          -1.176601   -1.812555   -1.766711 C.ar      1 <1>         0.190100 
      3 C          -0.960490   -1.178140   -0.528743 C.ar      1 <1>         0.168900 
      4 C          -0.488177   -1.899597    0.583754 C.ar      1 <1>         0.202200 
      5 C          -0.203932   -3.258013    0.418396 C.ar      1 <1>        -0.277000 
      6 C          -0.394637   -3.919601   -0.802892 C.ar      1 <1>         0.127500 
      7 C          -1.687786   -1.034939   -2.957046 C.3       1 <1>        -0.539400 
      8 C          -0.305666   -1.245094    1.930063 C.3       1 <1>        -0.534300 
      9 N          -1.283295    0.209370   -0.400516 N.pl3     1 <1>        -0.763100 
     10 C          -0.379190    1.233721   -0.279232 C.ar      1 <1>         0.573900 
     11 C          -0.811990    2.577834   -0.251967 C.ar      1 <1>        -0.225900 
     12 C           0.179149    3.534880   -0.117296 C.ar      1 <1>         0.066300 
     13 N           1.483681    3.249315   -0.015915 N.ar      1 <1>        -0.507400 
     14 C           1.777063    1.936281   -0.055053 C.ar      1 <1>         0.689200 
     15 N           0.921046    0.916947   -0.180507 N.ar      1 <1>        -0.568100 
     16 N           3.131367    1.679237    0.052616 N.pl3     1 <1>        -0.768900 
     17 C           3.871975    0.499725    0.028871 C.ar      1 <1>         0.381100 
     18 C           5.260522    0.616624    0.251093 C.ar      1 <1>        -0.204200 
     19 C           6.081897   -0.498135    0.240171 C.ar      1 <1>        -0.141500 
     20 C           5.539451   -1.774397    0.004751 C.ar      1 <1>         0.130200 
     21 C           4.157836   -1.891141   -0.221202 C.ar      1 <1>        -0.161800 
     22 C           3.328528   -0.777205   -0.211224 C.ar      1 <1>        -0.168000 
     23 C           6.378702   -2.932731   -0.003040 C.1       1 <1>         0.224700 
     24 N           7.059150   -3.877664   -0.007340 N.1       1 <1>        -0.489400 
     25 C          -0.080053   -5.364123   -0.948708 C.ar      1 <1>         0.097600 
     26 C           1.032910   -5.923697   -0.308145 C.ar      1 <1>        -0.238400 
     27 C           1.347051   -7.282365   -0.441866 C.ar      1 <1>         0.182900 
     28 C           0.522319   -8.082329   -1.236351 C.ar      1 <1>        -0.234700 
     29 C          -0.601628   -7.557417   -1.890480 C.ar      1 <1>         0.185700 
     30 C          -0.888621   -6.200569   -1.738231 C.ar      1 <1>        -0.240700 
     31 C          -1.483956   -8.450856   -2.732236 C.3       1 <1>        -0.531500 
     32 C           2.553016   -7.861134    0.262430 C.3       1 <1>        -0.532600 
     33 H          -1.027575   -3.657988   -2.844968 H         1 <1>         0.129100 
     34 H           0.138481   -3.825393    1.279514 H         1 <1>         0.131000 
     35 H          -1.664857   -1.650222   -3.861048 H         1 <1>         0.164900 
     36 H          -1.085854   -0.137810   -3.141421 H         1 <1>         0.172400 
     37 H          -2.726711   -0.702936   -2.819138 H         1 <1>         0.149500 
     38 H          -0.206189   -1.998573    2.717053 H         1 <1>         0.154100 
     39 H           0.592239   -0.616712    1.943361 H         1 <1>         0.183300 
     40 H          -1.154098   -0.597491    2.176672 H         1 <1>         0.157400 
     41 H          -2.215356    0.487908   -0.677647 H         1 <1>         0.330900 
     42 H          -1.860468    2.846387   -0.325245 H         1 <1>         0.132000 
     43 H          -0.078798    4.592357   -0.087269 H         1 <1>         0.147600 
     44 H           3.657308    2.536188    0.168511 H         1 <1>         0.345700 
     45 H           5.691908    1.597661    0.436495 H         1 <1>         0.135500 
     46 H           7.147424   -0.389451    0.415192 H         1 <1>         0.155100 
     47 H           3.728274   -2.870171   -0.410235 H         1 <1>         0.159100 
     48 H           2.268240   -0.881981   -0.387873 H         1 <1>         0.202700 
     49 H           1.684895   -5.285437    0.283883 H         1 <1>         0.125700 
     50 H           0.758946   -9.138763   -1.351363 H         1 <1>         0.115200 
     51 H          -1.771136   -5.787257   -2.220177 H         1 <1>         0.120100 
     52 H          -2.293798   -7.884435   -3.202925 H         1 <1>         0.153300 
     53 H          -1.940287   -9.245945   -2.129169 H         1 <1>         0.162900 
     54 H          -0.911589   -8.941881   -3.528940 H         1 <1>         0.162400 
     55 H           2.769021   -8.877012   -0.083159 H         1 <1>         0.155300 
     56 H           2.396268   -7.907290    1.347947 H         1 <1>         0.163700 
     57 H           3.447761   -7.250935    0.093257 H         1 <1>         0.170500 
@<TRIPOS>BOND
     1    7   35 1    
     2    7   36 1    
     3    7   37 1    
     4    2    7 1    
     5   31   54 1    
     6    1   33 1    
     7   31   52 1    
     8   29   31 1    
     9   31   53 1    
    10    2    1 ar   
    11    1    6 ar   
    12    3    2 ar   
    13   30   51 1    
    14   23   24 3    
    15   30   29 ar   
    16   29   28 ar   
    17   20   23 1    
    18   19   46 1    
    19   25   30 ar   
    20   19   20 ar   
    21   18   19 ar   
    22   21   20 ar   
    23   18   45 1    
    24   17   18 ar   
    25   21   47 1    
    26   22   21 ar   
    27   16   44 1    
    28   17   22 ar   
    29   16   17 1    
    30   22   48 1    
    31   14   16 1    
    32   14   13 ar   
    33   12   13 ar   
    34   15   14 ar   
    35   28   50 1    
    36   12   43 1    
    37   11   12 ar   
    38   28   27 ar   
    39   10   15 ar   
    40    6   25 1    
    41   25   26 ar   
    42   10   11 ar   
    43   11   42 1    
    44    9   10 1    
    45    6    5 ar   
    46    9   41 1    
    47    3    9 1    
    48    3    4 ar   
    49   27   26 ar   
    50   27   32 1    
    51   26   49 1    
    52   32   57 1    
    53   32   55 1    
    54   32   56 1    
    55    5    4 ar   
    56    5   34 1    
    57    4    8 1    
    58    8   39 1    
    59    8   40 1    
    60    8   38 1    
@<TRIPOS>SUBSTRUCTURE
     1 ****       54 TEMP              0 ****  ****    0 ROOT 
