#	Name:			JKJ-2018-EJMC-726-3-4u
#	Creating user name:	Administrator
#	Creation time:		Sun Jul 05 16:05:00 2020

#	Modifying user name:	Administrator
#	Modification time:	Sun Jul 05 16:09:16 2020

@<TRIPOS>MOLECULE
JKJ-2018-EJMC-726-3-4u
   51    54     1     0     0
SMALL
MULLIKEN_CHARGES
INVALID_CHARGES

@<TRIPOS>ATOM
      1 C          -0.099489   -3.192983   -1.328759 C.ar      1 <1>        -0.274500 
      2 C          -0.329156   -1.816686   -1.415521 C.ar      1 <1>         0.199500 
      3 C          -0.996486   -1.185200   -0.348588 C.ar      1 <1>         0.176500 
      4 C          -1.451516   -1.921774    0.762293 C.ar      1 <1>         0.188500 
      5 C          -1.215246   -3.296752    0.798880 C.ar      1 <1>        -0.270300 
      6 C          -0.532998   -3.952979   -0.234476 C.ar      1 <1>         0.126700 
      7 C           0.125741   -1.048631   -2.630579 C.3       1 <1>        -0.534500 
      8 C          -2.187048   -1.243358    1.894225 C.3       1 <1>        -0.541000 
      9 N          -1.286812    0.212183   -0.407665 N.pl3     1 <1>        -0.763500 
     10 C          -0.377746    1.233656   -0.274371 C.ar      1 <1>         0.572700 
     11 C          -0.811672    2.576481   -0.250649 C.ar      1 <1>        -0.226900 
     12 C           0.179335    3.534447   -0.118463 C.ar      1 <1>         0.067500 
     13 N           1.482798    3.248071   -0.017941 N.ar      1 <1>        -0.505600 
     14 C           1.778227    1.935095   -0.054057 C.ar      1 <1>         0.690100 
     15 N           0.921166    0.914306   -0.174454 N.ar      1 <1>        -0.569000 
     16 N           3.132535    1.683347    0.049730 N.pl3     1 <1>        -0.769000 
     17 C           3.877862    0.506286    0.074622 C.ar      1 <1>         0.381300 
     18 C           5.281111    0.646090    0.116143 C.ar      1 <1>        -0.204300 
     19 C           6.108327   -0.463832    0.148589 C.ar      1 <1>        -0.141000 
     20 C           5.556869   -1.757667    0.139874 C.ar      1 <1>         0.130600 
     21 C           4.159818   -1.897996    0.101804 C.ar      1 <1>        -0.159000 
     22 C           3.324345   -0.788362    0.070681 C.ar      1 <1>        -0.168100 
     23 C           6.405896   -2.908740    0.170049 C.1       1 <1>         0.226600 
     24 N           7.098599   -3.844277    0.194002 N.1       1 <1>        -0.485900 
     25 C          -0.285872   -5.416912   -0.174708 C.ar      1 <1>         0.083900 
     26 C           0.038624   -6.036473    1.042748 C.ar      1 <1>        -0.167300 
     27 C           0.263039   -7.409553    1.082990 C.ar      1 <1>        -0.070200 
     28 C           0.180733   -8.203769   -0.059490 C.ar      1 <1>        -0.127700 
     29 C          -0.140603   -7.573929   -1.260580 C.ar      1 <1>        -0.070400 
     30 C          -0.375493   -6.204055   -1.333914 C.ar      1 <1>        -0.166100 
     31 CL         -0.266501   -8.544537   -2.719646 Cl        1 <1>        -0.008900 
     32 CL          0.674286   -8.166747    2.613789 Cl        1 <1>        -0.007400 
     33 H           0.440396   -3.680158   -2.136317 H         1 <1>         0.137300 
     34 H          -1.586856   -3.870020    1.643905 H         1 <1>         0.134500 
     35 H           0.367206   -1.729277   -3.452179 H         1 <1>         0.155600 
     36 H           1.016441   -0.450954   -2.407580 H         1 <1>         0.187900 
     37 H          -0.649462   -0.354386   -2.972444 H         1 <1>         0.161100 
     38 H          -2.346997   -1.936904    2.724410 H         1 <1>         0.167500 
     39 H          -1.629613   -0.380063    2.274845 H         1 <1>         0.175400 
     40 H          -3.176677   -0.877962    1.585067 H         1 <1>         0.153800 
     41 H          -2.251305    0.477044   -0.256512 H         1 <1>         0.332700 
     42 H          -1.859067    2.844707   -0.337887 H         1 <1>         0.133800 
     43 H          -0.078173    4.592019   -0.092040 H         1 <1>         0.149900 
     44 H           3.658183    2.546065    0.113407 H         1 <1>         0.347000 
     45 H           5.719873    1.641193    0.120362 H         1 <1>         0.136700 
     46 H           7.185768   -0.337730    0.179314 H         1 <1>         0.156800 
     47 H           3.723410   -2.891867    0.098441 H         1 <1>         0.158200 
     48 H           2.251439   -0.910052    0.046952 H         1 <1>         0.197600 
     49 H           0.141864   -5.449019    1.947789 H         1 <1>         0.161600 
     50 H           0.360457   -9.270783   -0.015535 H         1 <1>         0.178600 
     51 H          -0.651707   -5.756722   -2.281621 H         1 <1>         0.160900 
@<TRIPOS>BOND
     1    7   35 1    
     2    7   37 1    
     3   29   31 1    
     4    7   36 1    
     5    2    7 1    
     6   30   51 1    
     7    1   33 1    
     8    2    1 ar   
     9    3    2 ar   
    10   30   29 ar   
    11   25   30 ar   
    12    1    6 ar   
    13   29   28 ar   
    14   23   24 3    
    15   19   46 1    
    16    9    3 1    
    17   10    9 1    
    18    9   41 1    
    19   20   23 1    
    20    3    4 ar   
    21   19   20 ar   
    22   18   19 ar   
    23   21   20 ar   
    24   18   45 1    
    25   17   18 ar   
    26   15   10 ar   
    27   10   11 ar   
    28    6   25 1    
    29    6    5 ar   
    30   14   15 ar   
    31   21   47 1    
    32   22   21 ar   
    33   25   26 ar   
    34   17   22 ar   
    35   16   17 1    
    36   11   42 1    
    37   22   48 1    
    38   11   12 ar   
    39   14   16 1    
    40   14   13 ar   
    41   16   44 1    
    42   28   50 1    
    43   28   27 ar   
    44   12   13 ar   
    45   12   43 1    
    46    4    5 ar   
    47    4    8 1    
    48    5   34 1    
    49   26   27 ar   
    50   26   49 1    
    51   27   32 1    
    52    8   40 1    
    53    8   39 1    
    54    8   38 1    
@<TRIPOS>SUBSTRUCTURE
     1 ****       35 TEMP              0 ****  ****    0 ROOT 
