#	Name:			JKJ-2018-EJMC-726-3-4p
#	Creating user name:	Administrator
#	Creation time:		Sun Jul 05 16:04:59 2020

#	Modifying user name:	Administrator
#	Modification time:	Sun Jul 05 16:09:16 2020

@<TRIPOS>MOLECULE
JKJ-2018-EJMC-726-3-4p
   54    57     1     0     0
SMALL
MULLIKEN_CHARGES
INVALID_CHARGES

@<TRIPOS>ATOM
      1 C          -0.991023   -3.176280   -1.885973 C.ar      1 <1>        -0.271300 
      2 C          -1.242514   -1.808872   -1.766125 C.ar      1 <1>         0.187500 
      3 C          -0.980187   -1.177000   -0.535012 C.ar      1 <1>         0.175600 
      4 C          -0.489385   -1.905486    0.565476 C.ar      1 <1>         0.201500 
      5 C          -0.233984   -3.268909    0.393764 C.ar      1 <1>        -0.275300 
      6 C          -0.476536   -3.927238   -0.819645 C.ar      1 <1>         0.128000 
      7 C          -1.772136   -1.022533   -2.942389 C.3       1 <1>        -0.540800 
      8 C          -0.264536   -1.256486    1.907800 C.3       1 <1>        -0.535100 
      9 N          -1.286951    0.211578   -0.400499 N.pl3     1 <1>        -0.763400 
     10 C          -0.377453    1.233533   -0.278653 C.ar      1 <1>         0.572900 
     11 C          -0.811637    2.576515   -0.250467 C.ar      1 <1>        -0.226600 
     12 C           0.179122    3.534483   -0.117707 C.ar      1 <1>         0.067300 
     13 N           1.482933    3.248493   -0.017153 N.ar      1 <1>        -0.505800 
     14 C           1.778003    1.935640   -0.055455 C.ar      1 <1>         0.690000 
     15 N           0.921961    0.915272   -0.182769 N.ar      1 <1>        -0.568800 
     16 N           3.131853    1.682072    0.054835 N.pl3     1 <1>        -0.768900 
     17 C           3.876937    0.505038    0.046049 C.ar      1 <1>         0.381300 
     18 C           5.261502    0.628822    0.287101 C.ar      1 <1>        -0.204000 
     19 C           6.087782   -0.482212    0.292600 C.ar      1 <1>        -0.141000 
     20 C           5.554228   -1.761750    0.055255 C.ar      1 <1>         0.130900 
     21 C           4.176692   -1.885255   -0.189857 C.ar      1 <1>        -0.159700 
     22 C           3.342151   -0.774817   -0.196851 C.ar      1 <1>        -0.167400 
     23 C           6.398751   -2.916289    0.065014 C.1       1 <1>         0.225100 
     24 N           7.084281   -3.857415    0.075274 N.1       1 <1>        -0.486500 
     25 C          -0.205595   -5.379071   -0.968859 C.ar      1 <1>         0.094100 
     26 C           0.906678   -5.975248   -0.350387 C.ar      1 <1>        -0.181200 
     27 C           1.161902   -7.336614   -0.486693 C.ar      1 <1>        -0.165700 
     28 C           0.305243   -8.135064   -1.248278 C.ar      1 <1>        -0.004200 
     29 C          -0.805964   -7.560511   -1.870646 C.ar      1 <1>        -0.165800 
     30 C          -1.056563   -6.199067   -1.729753 C.ar      1 <1>        -0.178100 
     31 C           0.607578   -9.594805   -1.445884 C.3       1 <1>         0.783200 
     32 F          -0.519593  -10.321918   -1.620412 F         1 <1>        -0.271600 
     33 F           1.270920  -10.120014   -0.392052 F         1 <1>        -0.269700 
     34 F           1.379474   -9.804188   -2.538547 F         1 <1>        -0.260600 
     35 H          -1.162868   -3.657866   -2.844741 H         1 <1>         0.132100 
     36 H           0.119836   -3.840709    1.247349 H         1 <1>         0.134300 
     37 H          -1.157284   -0.138150   -3.145050 H         1 <1>         0.175000 
     38 H          -2.799643   -0.669385   -2.774979 H         1 <1>         0.152100 
     39 H          -1.788214   -1.638540   -3.845881 H         1 <1>         0.166900 
     40 H          -1.089674   -0.584211    2.166727 H         1 <1>         0.160300 
     41 H           0.651139   -0.654939    1.904892 H         1 <1>         0.186300 
     42 H          -0.174721   -2.012319    2.693543 H         1 <1>         0.155600 
     43 H          -2.213445    0.497498   -0.688920 H         1 <1>         0.332200 
     44 H          -1.860542    2.843937   -0.321428 H         1 <1>         0.133600 
     45 H          -0.078816    4.591893   -0.088226 H         1 <1>         0.149700 
     46 H           3.654711    2.540963    0.172234 H         1 <1>         0.346800 
     47 H           5.685943    1.612452    0.474774 H         1 <1>         0.136900 
     48 H           7.150270   -0.368208    0.482202 H         1 <1>         0.156900 
     49 H           3.755134   -2.867178   -0.381131 H         1 <1>         0.155600 
     50 H           2.285015   -0.884394   -0.389332 H         1 <1>         0.198600 
     51 H           1.592115   -5.361900    0.226932 H         1 <1>         0.145400 
     52 H           2.027209   -7.778701   -0.003813 H         1 <1>         0.160600 
     53 H          -1.482070   -8.181498   -2.449218 H         1 <1>         0.154900 
     54 H          -1.940715   -5.770239   -2.192023 H         1 <1>         0.140000 
@<TRIPOS>BOND
     1    7   39 1    
     2    7   37 1    
     3    7   38 1    
     4    2    7 1    
     5    1   35 1    
     6   31   34 1    
     7    2    1 ar   
     8    1    6 ar   
     9    3    2 ar   
    10   29   53 1    
    11   30   54 1    
    12   30   29 ar   
    13   29   28 ar   
    14   25   30 ar   
    15   16   46 1    
    16   23   24 3    
    17   20   23 1    
    18   21   49 1    
    19   19   48 1    
    20   19   20 ar   
    21   21   20 ar   
    22   18   19 ar   
    23   22   21 ar   
    24   18   47 1    
    25   17   18 ar   
    26   22   50 1    
    27   17   22 ar   
    28   16   17 1    
    29   14   16 1    
    30   14   13 ar   
    31   12   13 ar   
    32   15   14 ar   
    33   12   45 1    
    34   11   12 ar   
    35   28   31 1    
    36   31   32 1    
    37   31   33 1    
    38   10   15 ar   
    39   28   27 ar   
    40   10   11 ar   
    41   11   44 1    
    42    9   43 1    
    43    6   25 1    
    44   25   26 ar   
    45    9   10 1    
    46    6    5 ar   
    47    3    9 1    
    48    3    4 ar   
    49   27   26 ar   
    50   27   52 1    
    51   26   51 1    
    52    5    4 ar   
    53    5   36 1    
    54    4    8 1    
    55    8   41 1    
    56    8   40 1    
    57    8   42 1    
@<TRIPOS>SUBSTRUCTURE
     1 ****       34 TEMP              0 ****  ****    0 ROOT 
