#	Name:			JKJ-2018-EJMC-726-3-4s
#	Creating user name:	Administrator
#	Creation time:		Sun Jul 05 16:05:00 2020

#	Modifying user name:	Administrator
#	Modification time:	Sun Jul 05 16:09:16 2020

@<TRIPOS>MOLECULE
JKJ-2018-EJMC-726-3-4s
   57    60     1     0     0
SMALL
MULLIKEN_CHARGES
INVALID_CHARGES

@<TRIPOS>ATOM
      1 C          -0.236363   -3.205597   -1.424909 C.ar      1 <1>        -0.258200 
      2 C          -0.390604   -1.814733   -1.464711 C.ar      1 <1>         0.202000 
      3 C          -1.042964   -1.188829   -0.385824 C.ar      1 <1>         0.175000 
      4 C          -1.547353   -1.938099    0.694424 C.ar      1 <1>         0.185300 
      5 C          -1.386346   -3.326148    0.680955 C.ar      1 <1>        -0.253900 
      6 C          -0.731395   -3.979852   -0.369433 C.ar      1 <1>         0.082000 
      7 C           0.110327   -1.029589   -2.650769 C.3       1 <1>        -0.535100 
      8 C          -2.254841   -1.260737    1.844908 C.3       1 <1>        -0.538600 
      9 N          -1.292746    0.218834   -0.408649 N.pl3     1 <1>        -0.765400 
     10 C          -0.376593    1.229898   -0.274082 C.ar      1 <1>         0.576200 
     11 C          -0.809996    2.574555   -0.248365 C.ar      1 <1>        -0.228200 
     12 C           0.178721    3.533227   -0.119111 C.ar      1 <1>         0.067400 
     13 N           1.482727    3.247030   -0.019885 N.ar      1 <1>        -0.508100 
     14 C           1.777851    1.934225   -0.053982 C.ar      1 <1>         0.690100 
     15 N           0.923703    0.910541   -0.175435 N.ar      1 <1>        -0.568800 
     16 N           3.134163    1.689276    0.051639 N.pl3     1 <1>        -0.769300 
     17 C           3.887595    0.519869    0.103588 C.ar      1 <1>         0.383100 
     18 C           5.289545    0.672487    0.155691 C.ar      1 <1>        -0.204600 
     19 C           6.126047   -0.428695    0.219653 C.ar      1 <1>        -0.141600 
     20 C           5.585047   -1.726812    0.233595 C.ar      1 <1>         0.132600 
     21 C           4.189692   -1.879180    0.183011 C.ar      1 <1>        -0.161500 
     22 C           3.344117   -0.778910    0.119101 C.ar      1 <1>        -0.175000 
     23 C           6.441000   -2.871093    0.299697 C.1       1 <1>         0.221900 
     24 N           7.137478   -3.802575    0.354015 N.1       1 <1>        -0.487700 
     25 C          -0.583608   -5.472089   -0.370531 C.ar      1 <1>        -0.076100 
     26 C          -1.568774   -6.271885   -0.988406 C.ar      1 <1>         0.169800 
     27 C          -1.418049   -7.663434   -0.977966 C.ar      1 <1>        -0.199700 
     28 C          -0.316125   -8.259996   -0.370037 C.ar      1 <1>        -0.112200 
     29 C           0.652315   -7.465019    0.237687 C.ar      1 <1>        -0.198800 
     30 C           0.534668   -6.070233    0.247630 C.ar      1 <1>         0.168800 
     31 C           1.602992   -5.229873    0.911209 C.3       1 <1>        -0.542900 
     32 C          -2.776585   -5.651333   -1.655651 C.3       1 <1>        -0.530000 
     33 H           0.263368   -3.701135   -2.254087 H         1 <1>         0.132600 
     34 H          -1.776562   -3.912442    1.509577 H         1 <1>         0.130000 
     35 H           0.341881   -1.695898   -3.486961 H         1 <1>         0.154500 
     36 H           1.016627   -0.468042   -2.398382 H         1 <1>         0.185800 
     37 H          -0.634781   -0.299762   -2.986740 H         1 <1>         0.157800 
     38 H          -3.222118   -0.833246    1.543728 H         1 <1>         0.149600 
     39 H          -1.657099   -0.440469    2.258609 H         1 <1>         0.173400 
     40 H          -2.456633   -1.973888    2.649253 H         1 <1>         0.165800 
     41 H          -2.255428    0.501023   -0.279333 H         1 <1>         0.331900 
     42 H          -1.858085    2.841222   -0.333769 H         1 <1>         0.132100 
     43 H          -0.079320    4.590789   -0.093871 H         1 <1>         0.148100 
     44 H           3.652945    2.556406    0.111927 H         1 <1>         0.346400 
     45 H           5.719100    1.671576    0.144261 H         1 <1>         0.136000 
     46 H           7.202156   -0.292593    0.258612 H         1 <1>         0.155800 
     47 H           3.763620   -2.877395    0.197990 H         1 <1>         0.164300 
     48 H           2.272061   -0.909225    0.084510 H         1 <1>         0.197200 
     49 H          -2.175989   -8.281915   -1.453076 H         1 <1>         0.120200 
     50 H          -0.211991   -9.341865   -0.370691 H         1 <1>         0.127100 
     51 H           1.514783   -7.927235    0.711693 H         1 <1>         0.124900 
     52 H           1.194698   -4.618744    1.724670 H         1 <1>         0.164300 
     53 H           2.063387   -4.535189    0.198185 H         1 <1>         0.169300 
     54 H           2.395258   -5.859868    1.326284 H         1 <1>         0.159200 
     55 H          -3.360993   -5.044892   -0.953689 H         1 <1>         0.160900 
     56 H          -3.435492   -6.424286   -2.063149 H         1 <1>         0.151100 
     57 H          -2.489150   -4.985849   -2.478295 H         1 <1>         0.163000 
@<TRIPOS>BOND
     1    8   40 1    
     2    8   39 1    
     3    8   38 1    
     4    4    8 1    
     5    5   34 1    
     6   31   52 1    
     7   31   54 1    
     8    5    4 ar   
     9    4    3 ar   
    10    6    5 ar   
    11   30   31 1    
    12   31   53 1    
    13   29   51 1    
    14   30   29 ar   
    15   25   30 ar   
    16   28   29 ar   
    17    9   41 1    
    18   21   47 1    
    19   22   48 1    
    20   12   43 1    
    21   22   21 ar   
    22   21   20 ar   
    23   17   22 ar   
    24   12   13 ar   
    25   11   12 ar   
    26   11   42 1    
    27   14   13 ar   
    28   10   11 ar   
    29   28   50 1    
    30   27   28 ar   
    31   14   16 1    
    32   15   14 ar   
    33   25    6 1    
    34   26   25 ar   
    35    6    1 ar   
    36   10   15 ar   
    37    9   10 1    
    38   23   24 3    
    39   20   23 1    
    40   16   44 1    
    41   16   17 1    
    42   19   20 ar   
    43   17   18 ar   
    44    3    9 1    
    45    3    2 ar   
    46   18   19 ar   
    47   19   46 1    
    48   18   45 1    
    49   32   55 1    
    50   26   27 ar   
    51   27   49 1    
    52   26   32 1    
    53   32   56 1    
    54   32   57 1    
    55    1    2 ar   
    56    1   33 1    
    57    2    7 1    
    58    7   36 1    
    59    7   37 1    
    60    7   35 1    
@<TRIPOS>SUBSTRUCTURE
     1 ****       52 TEMP              0 ****  ****    0 ROOT 
