#	Name:			JKJ-2018-EJMC-726-3-4b
#	Creating user name:	Administrator
#	Creation time:		Sun Jul 05 16:04:59 2020

#	Modifying user name:	Administrator
#	Modification time:	Sun Jul 05 16:09:16 2020

@<TRIPOS>MOLECULE
JKJ-2018-EJMC-726-3-4b
   52    55     1     0     0
SMALL
MULLIKEN_CHARGES
INVALID_CHARGES

@<TRIPOS>ATOM
      1 C          -0.996169   -3.186603   -1.862233 C.ar      1 <1>        -0.270700 
      2 C          -1.246065   -1.818218   -1.752107 C.ar      1 <1>         0.186700 
      3 C          -0.980477   -1.177275   -0.525989 C.ar      1 <1>         0.178200 
      4 C          -0.487494   -1.898077    0.579030 C.ar      1 <1>         0.201700 
      5 C          -0.233251   -3.262696    0.416930 C.ar      1 <1>        -0.274400 
      6 C          -0.479905   -3.929786   -0.791127 C.ar      1 <1>         0.126600 
      7 C          -1.777183   -1.040699   -2.933405 C.3       1 <1>        -0.541300 
      8 C          -0.260308   -1.240111    1.916371 C.3       1 <1>        -0.535400 
      9 N          -1.287094    0.211339   -0.401009 N.pl3     1 <1>        -0.764000 
     10 C          -0.377334    1.233939   -0.278270 C.ar      1 <1>         0.572300 
     11 C          -0.811773    2.576459   -0.250695 C.ar      1 <1>        -0.226500 
     12 C           0.179209    3.534521   -0.117730 C.ar      1 <1>         0.067600 
     13 N           1.482786    3.248289   -0.017053 N.ar      1 <1>        -0.504900 
     14 C           1.778340    1.935631   -0.055353 C.ar      1 <1>         0.690300 
     15 N           0.921729    0.915202   -0.182107 N.ar      1 <1>        -0.568900 
     16 N           3.131968    1.682206    0.054349 N.pl3     1 <1>        -0.768900 
     17 C           3.877579    0.505375    0.039187 C.ar      1 <1>         0.381300 
     18 C           5.262500    0.628107    0.278867 C.ar      1 <1>        -0.203800 
     19 C           6.088767   -0.483087    0.277476 C.ar      1 <1>        -0.141000 
     20 C           5.554695   -1.761395    0.034500 C.ar      1 <1>         0.131400 
     21 C           4.176892   -1.883630   -0.209438 C.ar      1 <1>        -0.159400 
     22 C           3.342554   -0.773168   -0.209472 C.ar      1 <1>        -0.167200 
     23 C           6.398584   -2.916477    0.037112 C.1       1 <1>         0.225100 
     24 N           7.082332   -3.858887    0.041401 N.1       1 <1>        -0.485600 
     25 C          -0.212537   -5.382337   -0.928981 C.ar      1 <1>         0.098000 
     26 C           0.894594   -5.978002   -0.298193 C.ar      1 <1>        -0.181500 
     27 C           1.149410   -7.338479   -0.421905 C.ar      1 <1>        -0.141500 
     28 C           0.293451   -8.145960   -1.189194 C.ar      1 <1>         0.133200 
     29 C          -0.815994   -7.565673   -1.826240 C.ar      1 <1>        -0.141600 
     30 C          -1.060054   -6.204382   -1.693413 C.ar      1 <1>        -0.178200 
     31 C           0.546743   -9.550403   -1.320881 C.1       1 <1>         0.237000 
     32 N           0.748060  -10.691356   -1.428442 N.1       1 <1>        -0.476900 
     33 H          -1.169755   -3.674298   -2.817495 H         1 <1>         0.133000 
     34 H           0.121280   -3.828263    1.274288 H         1 <1>         0.135300 
     35 H          -2.806543   -0.691361   -2.769302 H         1 <1>         0.153400 
     36 H          -1.789493   -1.661769   -3.833482 H         1 <1>         0.167500 
     37 H          -1.165782   -0.155006   -3.140015 H         1 <1>         0.175900 
     38 H          -1.084092   -0.564619    2.171078 H         1 <1>         0.161400 
     39 H           0.656372   -0.640211    1.908286 H         1 <1>         0.187400 
     40 H          -0.171294   -1.990405    2.707442 H         1 <1>         0.156200 
     41 H          -2.211874    0.496160   -0.695788 H         1 <1>         0.332800 
     42 H          -1.860626    2.843891   -0.321472 H         1 <1>         0.134400 
     43 H          -0.078757    4.591872   -0.088065 H         1 <1>         0.150600 
     44 H           3.654711    2.541056    0.172309 H         1 <1>         0.347300 
     45 H           5.687214    1.610660    0.470895 H         1 <1>         0.137600 
     46 H           7.151477   -0.370111    0.466040 H         1 <1>         0.157600 
     47 H           3.755413   -2.864731   -0.405366 H         1 <1>         0.154300 
     48 H           2.285260   -0.881570   -0.401370 H         1 <1>         0.197400 
     49 H           1.578973   -5.362062    0.277340 H         1 <1>         0.150100 
     50 H           2.013653   -7.780945    0.063092 H         1 <1>         0.165600 
     51 H          -1.484242   -8.188602   -2.412171 H         1 <1>         0.159900 
     52 H          -1.937012   -5.774503   -2.167806 H         1 <1>         0.144700 
@<TRIPOS>BOND
     1    7   36 1    
     2    7   37 1    
     3    7   35 1    
     4    2    7 1    
     5    1   33 1    
     6    2    1 ar   
     7    1    6 ar   
     8   29   51 1    
     9    3    2 ar   
    10   30   52 1    
    11   30   29 ar   
    12   29   28 ar   
    13   25   30 ar   
    14   23   24 3    
    15   21   47 1    
    16   20   23 1    
    17   21   20 ar   
    18   22   21 ar   
    19   19   20 ar   
    20   22   48 1    
    21   19   46 1    
    22   18   19 ar   
    23   17   22 ar   
    24   16   44 1    
    25   17   18 ar   
    26   18   45 1    
    27   16   17 1    
    28   14   16 1    
    29   14   13 ar   
    30   12   13 ar   
    31   15   14 ar   
    32   12   43 1    
    33   31   32 3    
    34   11   12 ar   
    35   28   31 1    
    36   28   27 ar   
    37   10   15 ar   
    38    9   41 1    
    39    6   25 1    
    40   25   26 ar   
    41   10   11 ar   
    42   11   42 1    
    43    9   10 1    
    44    6    5 ar   
    45    3    9 1    
    46    3    4 ar   
    47   27   26 ar   
    48   27   50 1    
    49   26   49 1    
    50    5    4 ar   
    51    5   34 1    
    52    4    8 1    
    53    8   39 1    
    54    8   38 1    
    55    8   40 1    
@<TRIPOS>SUBSTRUCTURE
     1 ****       32 TEMP              0 ****  ****    0 ROOT 
