#	Name:			JKJ-2018-EJMC-726-3-4l
#	Creating user name:	Administrator
#	Creation time:		Sun Jul 05 16:04:59 2020

#	Modifying user name:	Administrator
#	Modification time:	Sun Jul 05 16:09:16 2020

@<TRIPOS>MOLECULE
JKJ-2018-EJMC-726-3-4l
   54    57     1     0     0
SMALL
MULLIKEN_CHARGES
INVALID_CHARGES

@<TRIPOS>ATOM
      1 C          -0.229487   -3.272356    0.387617 C.ar      1 <1>        -0.263200 
      2 C          -0.508166   -1.913604    0.565781 C.ar      1 <1>         0.200200 
      3 C          -0.961610   -1.176528   -0.544039 C.ar      1 <1>         0.167300 
      4 C          -1.158980   -1.791596   -1.794341 C.ar      1 <1>         0.192100 
      5 C          -0.880138   -3.154372   -1.922004 C.ar      1 <1>        -0.264400 
      6 C          -0.408104   -3.915387   -0.844004 C.ar      1 <1>         0.098900 
      7 C          -0.322978   -1.271064    1.917728 C.3       1 <1>        -0.533300 
      8 C          -1.660764   -0.998548   -2.978492 C.3       1 <1>        -0.539000 
      9 N          -1.284216    0.210311   -0.401047 N.pl3     1 <1>        -0.761900 
     10 C          -0.378725    1.233731   -0.279348 C.ar      1 <1>         0.573800 
     11 C          -0.811779    2.577634   -0.251637 C.ar      1 <1>        -0.226400 
     12 C           0.179205    3.534768   -0.117391 C.ar      1 <1>         0.066600 
     13 N           1.483413    3.248795   -0.016323 N.ar      1 <1>        -0.507400 
     14 C           1.777360    1.935581   -0.054472 C.ar      1 <1>         0.689200 
     15 N           0.921044    0.915890   -0.179875 N.ar      1 <1>        -0.568600 
     16 N           3.131528    1.680876    0.052224 N.pl3     1 <1>        -0.769000 
     17 C           3.876902    0.504038    0.034228 C.ar      1 <1>         0.381300 
     18 C           5.267917    0.631979    0.233314 C.ar      1 <1>        -0.204600 
     19 C           6.095105   -0.478194    0.226257 C.ar      1 <1>        -0.141400 
     20 C           5.556132   -1.760831    0.019500 C.ar      1 <1>         0.129700 
     21 C           4.171577   -1.889431   -0.180418 C.ar      1 <1>        -0.161200 
     22 C           3.336367   -0.779335   -0.175773 C.ar      1 <1>        -0.168500 
     23 C           6.405357   -2.912063    0.011750 C.1       1 <1>         0.226200 
     24 N           7.098566   -3.847658    0.005260 N.1       1 <1>        -0.488200 
     25 C          -0.072281   -5.357086   -1.032524 C.ar      1 <1>         0.010800 
     26 C           0.840909   -5.699556   -2.043532 C.ar      1 <1>        -0.165800 
     27 C           1.208578   -7.022805   -2.275999 C.ar      1 <1>        -0.135500 
     28 C           0.652434   -8.034764   -1.494662 C.ar      1 <1>        -0.119300 
     29 C          -0.266682   -7.708178   -0.498933 C.ar      1 <1>        -0.190700 
     30 C          -0.644859   -6.382796   -0.245429 C.ar      1 <1>         0.149300 
     31 C          -1.668291   -6.106912    0.835357 C.3       1 <1>        -0.532100 
     32 H           0.144426   -3.841325    1.234418 H         1 <1>         0.132100 
     33 H          -1.036048   -3.638106   -2.882757 H         1 <1>         0.130900 
     34 H          -1.172909   -0.628165    2.171972 H         1 <1>         0.157800 
     35 H           0.572772   -0.639965    1.934243 H         1 <1>         0.184400 
     36 H          -0.219356   -2.030866    2.697986 H         1 <1>         0.153300 
     37 H          -1.640291   -1.605084   -3.888261 H         1 <1>         0.165400 
     38 H          -2.697048   -0.658489   -2.840470 H         1 <1>         0.150000 
     39 H          -1.050473   -0.104666   -3.151935 H         1 <1>         0.172900 
     40 H          -2.214838    0.490590   -0.681322 H         1 <1>         0.331100 
     41 H          -1.860392    2.845653   -0.324734 H         1 <1>         0.132000 
     42 H          -0.078593    4.592341   -0.087728 H         1 <1>         0.147800 
     43 H           3.655703    2.539992    0.160671 H         1 <1>         0.345800 
     44 H           5.696369    1.618201    0.396232 H         1 <1>         0.135400 
     45 H           7.162936   -0.361262    0.381533 H         1 <1>         0.155200 
     46 H           3.744357   -2.874204   -0.342686 H         1 <1>         0.160300 
     47 H           2.274009   -0.891246   -0.334913 H         1 <1>         0.201600 
     48 H           1.279345   -4.904813   -2.641543 H         1 <1>         0.133000 
     49 H           1.925331   -7.258815   -3.057669 H         1 <1>         0.132100 
     50 H           0.925894   -9.073121   -1.661911 H         1 <1>         0.130000 
     51 H          -0.713652   -8.501260    0.096566 H         1 <1>         0.123000 
     52 H          -2.278308   -6.996960    1.021163 H         1 <1>         0.154200 
     53 H          -2.337119   -5.284409    0.564612 H         1 <1>         0.165300 
     54 H          -1.197191   -5.835325    1.788757 H         1 <1>         0.161700 
@<TRIPOS>BOND
     1    8   37 1    
     2    8   39 1    
     3    8   38 1    
     4    4    8 1    
     5   27   49 1    
     6    5   33 1    
     7   26   48 1    
     8   26   27 ar   
     9   27   28 ar   
    10   25   26 ar   
    11    4    5 ar   
    12    5    6 ar   
    13    3    4 ar   
    14   28   50 1    
    15   28   29 ar   
    16    6   25 1    
    17   25   30 ar   
    18    9   40 1    
    19   22   47 1    
    20   12   42 1    
    21    6    1 ar   
    22   21   46 1    
    23   12   13 ar   
    24   14   13 ar   
    25   11   12 ar   
    26   22   21 ar   
    27   17   22 ar   
    28   21   20 ar   
    29   16   43 1    
    30   14   16 1    
    31   16   17 1    
    32   15   14 ar   
    33   11   41 1    
    34   10   11 ar   
    35   17   18 ar   
    36   20   23 1    
    37   20   19 ar   
    38   23   24 3    
    39   10   15 ar   
    40    9   10 1    
    41    3    9 1    
    42    3    2 ar   
    43   18   19 ar   
    44   18   44 1    
    45   19   45 1    
    46   29   30 ar   
    47   29   51 1    
    48   30   31 1    
    49    1    2 ar   
    50    1   32 1    
    51    2    7 1    
    52   31   53 1    
    53   31   52 1    
    54   31   54 1    
    55    7   35 1    
    56    7   34 1    
    57    7   36 1    
@<TRIPOS>SUBSTRUCTURE
     1 ****       49 TEMP              0 ****  ****    0 ROOT 
