#	Name:			JKJ-2018-EJMC-726-3-4k
#	Creating user name:	Administrator
#	Creation time:		Sun Jul 05 16:04:59 2020

#	Modifying user name:	Administrator
#	Modification time:	Sun Jul 05 16:09:16 2020

@<TRIPOS>MOLECULE
JKJ-2018-EJMC-726-3-4k
   54    57     1     0     0
SMALL
MULLIKEN_CHARGES
INVALID_CHARGES

@<TRIPOS>ATOM
      1 C          -0.926820   -3.162157   -1.912346 C.ar      1 <1>        -0.273600 
      2 C          -1.202103   -1.800073   -1.782575 C.ar      1 <1>         0.190200 
      3 C          -0.967095   -1.176932   -0.542077 C.ar      1 <1>         0.169300 
      4 C          -0.483998   -1.909670    0.558074 C.ar      1 <1>         0.201500 
      5 C          -0.206220   -3.267455    0.376944 C.ar      1 <1>        -0.276300 
      6 C          -0.415978   -3.917949   -0.847178 C.ar      1 <1>         0.128200 
      7 C          -1.724971   -1.008920   -2.958883 C.3       1 <1>        -0.539600 
      8 C          -0.285579   -1.268779    1.908749 C.3       1 <1>        -0.534300 
      9 N          -1.284738    0.210153   -0.399554 N.pl3     1 <1>        -0.762100 
     10 C          -0.378547    1.233405   -0.279430 C.ar      1 <1>         0.573500 
     11 C          -0.811793    2.577322   -0.250748 C.ar      1 <1>        -0.226100 
     12 C           0.179102    3.534800   -0.117531 C.ar      1 <1>         0.066500 
     13 N           1.483565    3.249168   -0.016695 N.ar      1 <1>        -0.507300 
     14 C           1.777275    1.936160   -0.055531 C.ar      1 <1>         0.689200 
     15 N           0.921594    0.916473   -0.183201 N.ar      1 <1>        -0.568200 
     16 N           3.131372    1.680107    0.054820 N.pl3     1 <1>        -0.768800 
     17 C           3.872173    0.500597    0.050979 C.ar      1 <1>         0.381200 
     18 C           5.257818    0.620603    0.289202 C.ar      1 <1>        -0.204300 
     19 C           6.079969   -0.493412    0.300496 C.ar      1 <1>        -0.141300 
     20 C           5.541257   -1.772430    0.071807 C.ar      1 <1>         0.130100 
     21 C           4.162732   -1.892400   -0.170675 C.ar      1 <1>        -0.161600 
     22 C           3.332409   -0.779031   -0.183172 C.ar      1 <1>        -0.168000 
     23 C           6.381435   -2.930007    0.087530 C.1       1 <1>         0.224800 
     24 N           7.063319   -3.873815    0.102723 N.1       1 <1>        -0.489100 
     25 C          -0.111503   -5.362443   -1.010370 C.ar      1 <1>         0.091000 
     26 C           1.010999   -5.934214   -0.387984 C.ar      1 <1>        -0.236100 
     27 C           1.325501   -7.289375   -0.525531 C.ar      1 <1>         0.176600 
     28 C           0.482304   -8.092621   -1.305909 C.ar      1 <1>        -0.175300 
     29 C          -0.636883   -7.545760   -1.931823 C.ar      1 <1>        -0.131800 
     30 C          -0.934733   -6.191444   -1.788317 C.ar      1 <1>        -0.178000 
     31 C           2.560761   -7.868782    0.124726 C.3       1 <1>        -0.530600 
     32 H          -1.076592   -3.636978   -2.878227 H         1 <1>         0.129500 
     33 H           0.144410   -3.842847    1.229582 H         1 <1>         0.131400 
     34 H          -1.108675   -0.123862   -3.154963 H         1 <1>         0.173000 
     35 H          -2.753031   -0.655160   -2.795966 H         1 <1>         0.149200 
     36 H          -1.735931   -1.621651   -3.864698 H         1 <1>         0.165200 
     37 H          -0.190102   -2.029975    2.688727 H         1 <1>         0.154200 
     38 H          -1.125291   -0.613798    2.165422 H         1 <1>         0.157900 
     39 H           0.619206   -0.650738    1.921323 H         1 <1>         0.183500 
     40 H          -2.214661    0.492340   -0.680343 H         1 <1>         0.330900 
     41 H          -1.860499    2.845388   -0.322248 H         1 <1>         0.132200 
     42 H          -0.078875    4.592186   -0.088003 H         1 <1>         0.147900 
     43 H           3.656223    2.537713    0.171495 H         1 <1>         0.345800 
     44 H           5.686080    1.603755    0.470479 H         1 <1>         0.135700 
     45 H           7.143208   -0.382180    0.488017 H         1 <1>         0.155300 
     46 H           3.736305   -2.873615   -0.355014 H         1 <1>         0.158700 
     47 H           2.274514   -0.886102   -0.372794 H         1 <1>         0.202200 
     48 H           1.670084   -5.299500    0.199788 H         1 <1>         0.127500 
     49 H           0.705305   -9.150826   -1.422356 H         1 <1>         0.123300 
     50 H          -1.288711   -8.180675   -2.526505 H         1 <1>         0.128900 
     51 H          -1.825207   -5.780678   -2.255579 H         1 <1>         0.127500 
     52 H           2.357988   -8.852548    0.562983 H         1 <1>         0.158200 
     53 H           2.941026   -7.217061    0.917554 H         1 <1>         0.159800 
     54 H           3.369755   -8.001085   -0.605549 H         1 <1>         0.172100 
@<TRIPOS>BOND
     1    7   36 1    
     2    7   34 1    
     3    7   35 1    
     4    2    7 1    
     5    1   32 1    
     6   29   50 1    
     7    1    2 ar   
     8    6    1 ar   
     9   30   51 1    
    10    2    3 ar   
    11   29   30 ar   
    12   28   29 ar   
    13   25   30 ar   
    14   23   24 3    
    15   20   23 1    
    16   19   45 1    
    17   19   20 ar   
    18   21   20 ar   
    19   21   46 1    
    20   18   19 ar   
    21   22   21 ar   
    22   28   49 1    
    23   18   44 1    
    24   17   18 ar   
    25   22   47 1    
    26   17   22 ar   
    27   16   43 1    
    28   16   17 1    
    29   27   28 ar   
    30   14   16 1    
    31   14   13 ar   
    32   12   13 ar   
    33   31   54 1    
    34   15   14 ar   
    35   25    6 1    
    36   26   25 ar   
    37   12   42 1    
    38   11   12 ar   
    39   10   15 ar   
    40    6    5 ar   
    41   10   11 ar   
    42   11   41 1    
    43    9   10 1    
    44    9   40 1    
    45    3    9 1    
    46    3    4 ar   
    47   27   26 ar   
    48   27   31 1    
    49   26   48 1    
    50   31   52 1    
    51   31   53 1    
    52    5    4 ar   
    53    5   33 1    
    54    4    8 1    
    55    8   39 1    
    56    8   38 1    
    57    8   37 1    
@<TRIPOS>SUBSTRUCTURE
     1 ****       50 TEMP              0 ****  ****    0 ROOT 
