#	Name:			JKJ-2018-EJMC-726-3-4n
#	Creating user name:	Administrator
#	Creation time:		Sun Jul 05 16:04:59 2020

#	Modifying user name:	Administrator
#	Modification time:	Sun Jul 05 16:09:16 2020

@<TRIPOS>MOLECULE
JKJ-2018-EJMC-726-3-4n
   55    58     1     0     0
SMALL
MULLIKEN_CHARGES
INVALID_CHARGES

@<TRIPOS>ATOM
      1 C           0.115727   -3.145100   -1.263231 C.ar      1 <1>        -0.276000 
      2 C          -0.231425   -1.797158   -1.391553 C.ar      1 <1>         0.203900 
      3 C          -0.926984   -1.184810   -0.332486 C.ar      1 <1>         0.163100 
      4 C          -1.311825   -1.920212    0.804549 C.ar      1 <1>         0.193600 
      5 C          -0.960800   -3.269298    0.881116 C.ar      1 <1>        -0.272400 
      6 C          -0.227841   -3.900913   -0.134026 C.ar      1 <1>         0.122100 
      7 C           0.136239   -1.037435   -2.641208 C.3       1 <1>        -0.533600 
      8 C          -2.065022   -1.260357    1.936099 C.3       1 <1>        -0.540400 
      9 N          -1.274106    0.201751   -0.411702 N.pl3     1 <1>        -0.759800 
     10 C          -0.382182    1.235938   -0.272549 C.ar      1 <1>         0.571300 
     11 C          -0.814095    2.579995   -0.249972 C.ar      1 <1>        -0.223500 
     12 C           0.179493    3.536436   -0.119065 C.ar      1 <1>         0.065100 
     13 N           1.485105    3.252053   -0.018740 N.ar      1 <1>        -0.505600 
     14 C           1.776178    1.939127   -0.051783 C.ar      1 <1>         0.687500 
     15 N           0.917568    0.922829   -0.169288 N.ar      1 <1>        -0.567600 
     16 N           3.129871    1.669458    0.045231 N.pl3     1 <1>        -0.766900 
     17 C           3.841273    0.471397    0.054117 C.ar      1 <1>         0.379500 
     18 C           5.247722    0.556842   -0.020697 C.ar      1 <1>        -0.202800 
     19 C           6.034100   -0.584033   -0.020923 C.ar      1 <1>        -0.141700 
     20 C           5.436147   -1.854609    0.058234 C.ar      1 <1>         0.131200 
     21 C           4.036928   -1.939600    0.149810 C.ar      1 <1>        -0.166200 
     22 C           3.244167   -0.801058    0.148555 C.ar      1 <1>        -0.166100 
     23 C           6.222826   -3.048626    0.033137 C.1       1 <1>         0.231900 
     24 N           6.838445   -4.037054    0.002333 N.1       1 <1>        -0.501800 
     25 C           0.178258   -5.325010   -0.009928 C.ar      1 <1>         0.083100 
     26 C           1.460462   -5.729569   -0.428412 C.ar      1 <1>        -0.257300 
     27 C           1.859391   -7.063844   -0.301982 C.ar      1 <1>         0.383400 
     28 C           0.973104   -8.009515    0.237598 C.ar      1 <1>        -0.169500 
     29 C          -0.292528   -7.610220    0.647056 C.ar      1 <1>        -0.136300 
     30 C          -0.695474   -6.277281    0.530238 C.ar      1 <1>        -0.181000 
     31 O           3.082061   -7.544330   -0.662833 O.3       1 <1>        -0.510000 
     32 C           4.053482   -6.637092   -1.167441 C.3       1 <1>        -0.222700 
     33 H           0.641093   -3.627494   -2.083339 H         1 <1>         0.130700 
     34 H          -1.223759   -3.830409    1.773755 H         1 <1>         0.130900 
     35 H           1.006025   -0.393747   -2.466563 H         1 <1>         0.182200 
     36 H          -0.682957   -0.389332   -2.970567 H         1 <1>         0.157800 
     37 H           0.381014   -1.726258   -3.455293 H         1 <1>         0.154200 
     38 H          -3.079375   -0.959749    1.637551 H         1 <1>         0.150500 
     39 H          -1.552942   -0.357420    2.288251 H         1 <1>         0.171400 
     40 H          -2.168515   -1.943616    2.783740 H         1 <1>         0.165900 
     41 H          -2.246384    0.443182   -0.272215 H         1 <1>         0.330700 
     42 H          -1.860829    2.851333   -0.335810 H         1 <1>         0.133000 
     43 H          -0.078136    4.594039   -0.093933 H         1 <1>         0.148400 
     44 H           3.676389    2.520742    0.079254 H         1 <1>         0.345400 
     45 H           5.721714    1.533256   -0.088976 H         1 <1>         0.136500 
     46 H           7.113982   -0.499045   -0.088120 H         1 <1>         0.155400 
     47 H           3.563563   -2.913472    0.227666 H         1 <1>         0.162800 
     48 H           2.169951   -0.884067    0.212263 H         1 <1>         0.204800 
     49 H           2.143844   -4.987149   -0.824159 H         1 <1>         0.138800 
     50 H           1.303798   -9.039394    0.326541 H         1 <1>         0.138600 
     51 H          -0.978384   -8.346407    1.058035 H         1 <1>         0.130300 
     52 H          -1.696246   -5.982859    0.831164 H         1 <1>         0.125100 
     53 H           4.319864   -5.872251   -0.427523 H         1 <1>         0.168500 
     54 H           3.709276   -6.149872   -2.089179 H         1 <1>         0.146400 
     55 H           4.937153   -7.238008   -1.386724 H         1 <1>         0.177000 
@<TRIPOS>BOND
     1    8   40 1    
     2    8   39 1    
     3    8   38 1    
     4    4    8 1    
     5    5   34 1    
     6   29   51 1    
     7    5    4 ar   
     8    6    5 ar   
     9   30   52 1    
    10    4    3 ar   
    11   29   30 ar   
    12   28   29 ar   
    13   25   30 ar   
    14   21   47 1    
    15   28   50 1    
    16   21   20 ar   
    17   22   21 ar   
    18   23   24 3    
    19   20   23 1    
    20   19   20 ar   
    21   22   48 1    
    22   17   22 ar   
    23   19   46 1    
    24   18   19 ar   
    25   27   28 ar   
    26   16   44 1    
    27   17   18 ar   
    28   16   17 1    
    29   18   45 1    
    30   14   16 1    
    31   14   13 ar   
    32   12   13 ar   
    33   15   14 ar   
    34   25    6 1    
    35   26   25 ar   
    36   12   43 1    
    37   11   12 ar   
    38   10   15 ar   
    39    6    1 ar   
    40   27   26 ar   
    41   31   27 1    
    42   32   53 1    
    43   10   11 ar   
    44   11   42 1    
    45    9   10 1    
    46   26   49 1    
    47    3    9 1    
    48    3    2 ar   
    49    9   41 1    
    50   31   32 1    
    51   32   55 1    
    52   32   54 1    
    53    1    2 ar   
    54    1   33 1    
    55    2    7 1    
    56    7   35 1    
    57    7   36 1    
    58    7   37 1    
@<TRIPOS>SUBSTRUCTURE
     1 ****       51 TEMP              0 ****  ****    0 ROOT 
