#	Name:			JKJ-2018-EJMC-726-3-4v
#	Creating user name:	Administrator
#	Creation time:		Sun Jul 05 16:05:00 2020

#	Modifying user name:	Administrator
#	Modification time:	Sun Jul 05 16:09:16 2020

@<TRIPOS>MOLECULE
JKJ-2018-EJMC-726-3-4v
   51    54     1     0     0
SMALL
MULLIKEN_CHARGES
INVALID_CHARGES

@<TRIPOS>ATOM
      1 C          -1.008404   -3.199855   -1.831649 C.ar      1 <1>        -0.270100 
      2 C          -1.243635   -1.827484   -1.737148 C.ar      1 <1>         0.185800 
      3 C          -0.988205   -1.179058   -0.513413 C.ar      1 <1>         0.177400 
      4 C          -0.515435   -1.895046    0.603270 C.ar      1 <1>         0.201500 
      5 C          -0.278102   -3.264624    0.457624 C.ar      1 <1>        -0.273900 
      6 C          -0.518938   -3.939934   -0.746553 C.ar      1 <1>         0.128400 
      7 C          -1.750391   -1.055391   -2.932708 C.3       1 <1>        -0.540300 
      8 C          -0.294179   -1.225532    1.935959 C.3       1 <1>        -0.535600 
      9 N          -1.287773    0.212811   -0.401956 N.pl3     1 <1>        -0.764700 
     10 C          -0.377301    1.233311   -0.278344 C.ar      1 <1>         0.573400 
     11 C          -0.811238    2.576363   -0.252757 C.ar      1 <1>        -0.226700 
     12 C           0.179118    3.534290   -0.117340 C.ar      1 <1>         0.067300 
     13 N           1.482585    3.247950   -0.015711 N.ar      1 <1>        -0.506000 
     14 C           1.778065    1.935068   -0.054454 C.ar      1 <1>         0.690200 
     15 N           0.921913    0.914011   -0.178587 N.ar      1 <1>        -0.568600 
     16 N           3.132462    1.683782    0.051280 N.pl3     1 <1>        -0.769100 
     17 C           3.884529    0.511677    0.013268 C.ar      1 <1>         0.381900 
     18 C           5.274488    0.644351    0.215508 C.ar      1 <1>        -0.204400 
     19 C           6.108703   -0.460242    0.186521 C.ar      1 <1>        -0.141200 
     20 C           5.577737   -1.741536   -0.046903 C.ar      1 <1>         0.131000 
     21 C           4.194221   -1.874347   -0.250268 C.ar      1 <1>        -0.159400 
     22 C           3.351591   -0.770265   -0.222287 C.ar      1 <1>        -0.167900 
     23 C           6.433432   -2.887611   -0.077128 C.1       1 <1>         0.225800 
     24 N           7.131192   -3.819393   -0.100978 N.1       1 <1>        -0.486000 
     25 C          -0.274125   -5.399780   -0.866761 C.ar      1 <1>         0.087800 
     26 C           0.805615   -6.001479   -0.199215 C.ar      1 <1>        -0.253300 
     27 C           1.010010   -7.369384   -0.326956 C.ar      1 <1>         0.396100 
     28 C           0.188116   -8.185040   -1.096142 C.ar      1 <1>        -0.276600 
     29 C          -0.872096   -7.565026   -1.746209 C.ar      1 <1>         0.394100 
     30 C          -1.121185   -6.202484   -1.649252 C.ar      1 <1>        -0.251000 
     31 F          -1.699809   -8.323157   -2.492859 F         1 <1>        -0.295900 
     32 F           2.053719   -7.930961    0.312174 F         1 <1>        -0.292200 
     33 H          -1.175825   -3.694629   -2.784282 H         1 <1>         0.133400 
     34 H           0.059176   -3.826892    1.323965 H         1 <1>         0.135400 
     35 H          -1.752086   -1.683327   -3.828049 H         1 <1>         0.167100 
     36 H          -1.129917   -0.175177   -3.135726 H         1 <1>         0.174900 
     37 H          -2.779888   -0.698053   -2.788123 H         1 <1>         0.152400 
     38 H          -0.195829   -1.969080    2.732175 H         1 <1>         0.155900 
     39 H          -1.125363   -0.557575    2.187281 H         1 <1>         0.160200 
     40 H           0.615412   -0.614729    1.922773 H         1 <1>         0.186600 
     41 H          -2.213301    0.498512   -0.693062 H         1 <1>         0.332500 
     42 H          -1.860065    2.843580   -0.325572 H         1 <1>         0.133500 
     43 H          -0.078917    4.591656   -0.086998 H         1 <1>         0.149500 
     44 H           3.653229    2.544554    0.163706 H         1 <1>         0.346800 
     45 H           5.696724    1.629754    0.398326 H         1 <1>         0.136600 
     46 H           7.175598   -0.340001    0.344619 H         1 <1>         0.156600 
     47 H           3.774878   -2.858256   -0.436121 H         1 <1>         0.156600 
     48 H           2.289775   -0.885114   -0.383425 H         1 <1>         0.198000 
     49 H           1.502233   -5.418483    0.392288 H         1 <1>         0.153400 
     50 H           0.365787   -9.249966   -1.183864 H         1 <1>         0.164700 
     51 H          -1.985060   -5.787375   -2.155576 H         1 <1>         0.148500 
@<TRIPOS>BOND
     1    7   35 1    
     2    7   36 1    
     3    7   37 1    
     4    2    7 1    
     5    1   33 1    
     6   29   31 1    
     7    2    1 ar   
     8    1    6 ar   
     9    3    2 ar   
    10   30   51 1    
    11   23   24 3    
    12   20   23 1    
    13   30   29 ar   
    14   29   28 ar   
    15   25   30 ar   
    16   19   46 1    
    17   19   20 ar   
    18   21   20 ar   
    19   21   47 1    
    20   18   19 ar   
    21   22   21 ar   
    22   18   45 1    
    23   17   18 ar   
    24   22   48 1    
    25   17   22 ar   
    26   16   17 1    
    27   16   44 1    
    28   14   16 1    
    29   14   13 ar   
    30   12   13 ar   
    31   15   14 ar   
    32   28   50 1    
    33   12   43 1    
    34   28   27 ar   
    35   11   12 ar   
    36   10   15 ar   
    37    6   25 1    
    38   25   26 ar   
    39    9   41 1    
    40   10   11 ar   
    41   11   42 1    
    42    6    5 ar   
    43    9   10 1    
    44    3    9 1    
    45    3    4 ar   
    46   27   26 ar   
    47   27   32 1    
    48   26   49 1    
    49    5    4 ar   
    50    5   34 1    
    51    4    8 1    
    52    8   40 1    
    53    8   39 1    
    54    8   38 1    
@<TRIPOS>SUBSTRUCTURE
     1 ****       31 TEMP              0 ****  ****    0 ROOT 
