#	Name:			JKJ-2018-EJMC-726-3-4d
#	Creating user name:	Administrator
#	Creation time:		Sun Jul 05 16:04:59 2020

#	Modifying user name:	Administrator
#	Modification time:	Sun Jul 05 16:09:16 2020

@<TRIPOS>MOLECULE
JKJ-2018-EJMC-726-3-4d
   51    54     1     0     0
SMALL
MULLIKEN_CHARGES
INVALID_CHARGES

@<TRIPOS>ATOM
      1 C          -0.958620   -3.178485   -1.878532 C.ar      1 <1>        -0.273200 
      2 C          -1.219406   -1.812240   -1.763186 C.ar      1 <1>         0.188900 
      3 C          -0.975003   -1.177732   -0.530125 C.ar      1 <1>         0.173100 
      4 C          -0.494094   -1.902813    0.576724 C.ar      1 <1>         0.202300 
      5 C          -0.231902   -3.265489    0.410607 C.ar      1 <1>        -0.277200 
      6 C          -0.454705   -3.926952   -0.805239 C.ar      1 <1>         0.130300 
      7 C          -1.738199   -1.030329   -2.947199 C.3       1 <1>        -0.540300 
      8 C          -0.284565   -1.249796    1.919730 C.3       1 <1>        -0.534900 
      9 N          -1.285953    0.211014   -0.400477 N.pl3     1 <1>        -0.763700 
     10 C          -0.378035    1.233586   -0.278796 C.ar      1 <1>         0.573400 
     11 C          -0.811731    2.576905   -0.251055 C.ar      1 <1>        -0.226400 
     12 C           0.179131    3.534609   -0.117578 C.ar      1 <1>         0.067100 
     13 N           1.483157    3.248653   -0.016663 N.ar      1 <1>        -0.506300 
     14 C           1.777814    1.935759   -0.055320 C.ar      1 <1>         0.689700 
     15 N           0.921641    0.915586   -0.182080 N.ar      1 <1>        -0.568700 
     16 N           3.131807    1.681474    0.054100 N.pl3     1 <1>        -0.768900 
     17 C           3.876117    0.504082    0.040071 C.ar      1 <1>         0.381300 
     18 C           5.262467    0.626881    0.272219 C.ar      1 <1>        -0.204100 
     19 C           6.088045   -0.484732    0.271784 C.ar      1 <1>        -0.141100 
     20 C           5.552143   -1.763860    0.037223 C.ar      1 <1>         0.130700 
     21 C           4.172897   -1.886389   -0.198794 C.ar      1 <1>        -0.160100 
     22 C           3.339133   -0.775550   -0.199515 C.ar      1 <1>        -0.167500 
     23 C           6.396156   -2.918745    0.040392 C.1       1 <1>         0.225000 
     24 N           7.081319   -3.860169    0.045273 N.1       1 <1>        -0.487100 
     25 C          -0.172036   -5.376834   -0.949555 C.ar      1 <1>         0.085100 
     26 C           0.934328   -5.966071   -0.314690 C.ar      1 <1>        -0.172300 
     27 C           1.208341   -7.325760   -0.445176 C.ar      1 <1>        -0.134400 
     28 C           0.365375   -8.117766   -1.223279 C.ar      1 <1>        -0.063700 
     29 C          -0.740906   -7.565579   -1.867098 C.ar      1 <1>        -0.134900 
     30 C          -1.000887   -6.204280   -1.725516 C.ar      1 <1>        -0.168900 
     31 CL          0.701540   -9.834920   -1.394824 Cl        1 <1>        -0.021400 
     32 H          -1.114477   -3.661254   -2.839525 H         1 <1>         0.130600 
     33 H           0.113522   -3.834817    1.269256 H         1 <1>         0.132900 
     34 H          -1.127825   -0.140907   -3.141198 H         1 <1>         0.174300 
     35 H          -2.770879   -0.685564   -2.794573 H         1 <1>         0.151500 
     36 H          -1.736124   -1.646646   -3.850658 H         1 <1>         0.166200 
     37 H          -1.116410   -0.583206    2.171651 H         1 <1>         0.159600 
     38 H           0.626718   -0.641438    1.922673 H         1 <1>         0.185400 
     39 H          -0.194778   -2.003521    2.707557 H         1 <1>         0.155200 
     40 H          -2.214562    0.494729   -0.683732 H         1 <1>         0.331800 
     41 H          -1.860487    2.844643   -0.322519 H         1 <1>         0.133100 
     42 H          -0.078771    4.592021   -0.087904 H         1 <1>         0.149100 
     43 H           3.655327    2.540041    0.169981 H         1 <1>         0.346500 
     44 H           5.688709    1.610161    0.457537 H         1 <1>         0.136500 
     45 H           7.151799   -0.371388    0.454378 H         1 <1>         0.156400 
     46 H           3.749372   -2.867902   -0.387755 H         1 <1>         0.156000 
     47 H           2.280713   -0.884489   -0.384939 H         1 <1>         0.199700 
     48 H           1.608484   -5.348990    0.272154 H         1 <1>         0.145500 
     49 H           2.072537   -7.764551    0.041873 H         1 <1>         0.161800 
     50 H          -1.394564   -8.194737   -2.462002 H         1 <1>         0.155800 
     51 H          -1.879416   -5.783974   -2.206471 H         1 <1>         0.139900 
@<TRIPOS>BOND
     1    7   36 1    
     2    7   34 1    
     3    7   35 1    
     4    2    7 1    
     5    1   32 1    
     6    2    1 ar   
     7    1    6 ar   
     8   29   50 1    
     9    3    2 ar   
    10   30   51 1    
    11   30   29 ar   
    12   29   28 ar   
    13   25   30 ar   
    14   23   24 3    
    15   20   23 1    
    16   21   46 1    
    17   21   20 ar   
    18   19   20 ar   
    19   19   45 1    
    20   22   21 ar   
    21   18   19 ar   
    22   16   43 1    
    23   22   47 1    
    24   17   22 ar   
    25   18   44 1    
    26   17   18 ar   
    27   16   17 1    
    28   14   16 1    
    29   14   13 ar   
    30   12   13 ar   
    31   15   14 ar   
    32   12   42 1    
    33   28   31 1    
    34   11   12 ar   
    35   28   27 ar   
    36   10   15 ar   
    37   10   11 ar   
    38   11   41 1    
    39    6   25 1    
    40   25   26 ar   
    41    9   40 1    
    42    9   10 1    
    43    6    5 ar   
    44    3    9 1    
    45    3    4 ar   
    46   27   26 ar   
    47   27   49 1    
    48   26   48 1    
    49    5    4 ar   
    50    5   33 1    
    51    4    8 1    
    52    8   38 1    
    53    8   37 1    
    54    8   39 1    
@<TRIPOS>SUBSTRUCTURE
     1 ****       50 TEMP              0 ****  ****    0 ROOT 
