#	Name:			JKJ-2018-EJMC-726-3-4g
#	Creating user name:	Administrator
#	Creation time:		Sun Jul 05 16:04:59 2020

#	Modifying user name:	Administrator
#	Modification time:	Sun Jul 05 16:09:16 2020

@<TRIPOS>MOLECULE
JKJ-2018-EJMC-726-3-4g
   51    54     1     0     0
SMALL
MULLIKEN_CHARGES
INVALID_CHARGES

@<TRIPOS>ATOM
      1 C          -0.947417   -3.180097   -1.874621 C.ar      1 <1>        -0.274300 
      2 C          -1.209424   -1.813796   -1.761861 C.ar      1 <1>         0.189300 
      3 C          -0.973061   -1.178346   -0.527931 C.ar      1 <1>         0.171500 
      4 C          -0.498308   -1.902693    0.581925 C.ar      1 <1>         0.202500 
      5 C          -0.236336   -3.265903    0.418746 C.ar      1 <1>        -0.278100 
      6 C          -0.451513   -3.928763   -0.797683 C.ar      1 <1>         0.131000 
      7 C          -1.721056   -1.033288   -2.950079 C.3       1 <1>        -0.539900 
      8 C          -0.294873   -1.247639    1.924878 C.3       1 <1>        -0.534800 
      9 N          -1.285385    0.210825   -0.400366 N.pl3     1 <1>        -0.763700 
     10 C          -0.378399    1.233473   -0.279088 C.ar      1 <1>         0.573800 
     11 C          -0.811619    2.577125   -0.251623 C.ar      1 <1>        -0.226300 
     12 C           0.179165    3.534628   -0.117410 C.ar      1 <1>         0.066800 
     13 N           1.483278    3.248688   -0.016228 N.ar      1 <1>        -0.506800 
     14 C           1.777473    1.935821   -0.055123 C.ar      1 <1>         0.689600 
     15 N           0.921552    0.915814   -0.181429 N.ar      1 <1>        -0.568600 
     16 N           3.131766    1.681212    0.053398 N.pl3     1 <1>        -0.769000 
     17 C           3.875842    0.503783    0.035213 C.ar      1 <1>         0.381400 
     18 C           5.263215    0.625819    0.261234 C.ar      1 <1>        -0.204100 
     19 C           6.088150   -0.486184    0.255891 C.ar      1 <1>        -0.141400 
     20 C           5.550525   -1.764828    0.022595 C.ar      1 <1>         0.130700 
     21 C           4.170111   -1.886679   -0.206939 C.ar      1 <1>        -0.160400 
     22 C           3.336899   -0.775417   -0.202735 C.ar      1 <1>        -0.167800 
     23 C           6.394135   -2.920148    0.020439 C.1       1 <1>         0.225000 
     24 N           7.079011   -3.861742    0.020874 N.1       1 <1>        -0.487800 
     25 C          -0.169595   -5.379566   -0.939235 C.ar      1 <1>         0.083200 
     26 C           0.935566   -5.968096   -0.299966 C.ar      1 <1>        -0.176300 
     27 C           1.208582   -7.328395   -0.427520 C.ar      1 <1>        -0.201100 
     28 C           0.363143   -8.109059   -1.206999 C.ar      1 <1>         0.382700 
     29 C          -0.740297   -7.568295   -1.856514 C.ar      1 <1>        -0.201800 
     30 C          -0.999000   -6.206451   -1.716761 C.ar      1 <1>        -0.172900 
     31 F           0.619586   -9.427364   -1.336402 F         1 <1>        -0.295800 
     32 H          -1.096844   -3.663504   -2.836308 H         1 <1>         0.129300 
     33 H           0.103879   -3.834765    1.279919 H         1 <1>         0.131600 
     34 H          -1.112564   -0.141561   -3.138788 H         1 <1>         0.173700 
     35 H          -2.756260   -0.692369   -2.806138 H         1 <1>         0.150900 
     36 H          -1.709103   -1.649394   -3.853553 H         1 <1>         0.165600 
     37 H          -1.132533   -0.588031    2.176665 H         1 <1>         0.158800 
     38 H           0.611186   -0.631272    1.928300 H         1 <1>         0.184800 
     39 H          -0.199009   -2.000233    2.713032 H         1 <1>         0.154700 
     40 H          -2.215733    0.493363   -0.679097 H         1 <1>         0.331500 
     41 H          -1.860373    2.845150   -0.324088 H         1 <1>         0.132700 
     42 H          -0.078836    4.592022   -0.087611 H         1 <1>         0.148600 
     43 H           3.655455    2.539748    0.168879 H         1 <1>         0.346300 
     44 H           5.690804    1.608705    0.445205 H         1 <1>         0.136200 
     45 H           7.152862   -0.373685    0.433524 H         1 <1>         0.156000 
     46 H           3.744975   -2.867837   -0.394509 H         1 <1>         0.156500 
     47 H           2.277486   -0.883406   -0.382915 H         1 <1>         0.200600 
     48 H           1.607398   -5.349059    0.287393 H         1 <1>         0.144500 
     49 H           2.067431   -7.783238    0.055034 H         1 <1>         0.154100 
     50 H          -1.383531   -8.211636   -2.447956 H         1 <1>         0.148000 
     51 H          -1.875005   -5.783379   -2.199597 H         1 <1>         0.138900 
@<TRIPOS>BOND
     1    7   36 1    
     2    7   34 1    
     3    7   35 1    
     4    2    7 1    
     5    1   32 1    
     6   29   50 1    
     7    2    1 ar   
     8    1    6 ar   
     9    3    2 ar   
    10   30   51 1    
    11   30   29 ar   
    12   29   28 ar   
    13   25   30 ar   
    14   23   24 3    
    15   20   23 1    
    16   21   46 1    
    17   21   20 ar   
    18   19   20 ar   
    19   19   45 1    
    20   22   21 ar   
    21   18   19 ar   
    22   16   43 1    
    23   22   47 1    
    24   17   22 ar   
    25   18   44 1    
    26   17   18 ar   
    27   16   17 1    
    28   14   16 1    
    29   14   13 ar   
    30   12   13 ar   
    31   15   14 ar   
    32   12   42 1    
    33   28   31 1    
    34   11   12 ar   
    35   28   27 ar   
    36   10   15 ar   
    37    6   25 1    
    38   25   26 ar   
    39   10   11 ar   
    40   11   41 1    
    41    9   40 1    
    42    9   10 1    
    43    6    5 ar   
    44    3    9 1    
    45    3    4 ar   
    46   27   26 ar   
    47   27   49 1    
    48   26   48 1    
    49    5    4 ar   
    50    5   33 1    
    51    4    8 1    
    52    8   38 1    
    53    8   37 1    
    54    8   39 1    
@<TRIPOS>SUBSTRUCTURE
     1 ****       50 TEMP              0 ****  ****    0 ROOT 
