#	Name:			WHQ-2014-SQER-761-61
#	Creating user name:	Administrator
#	Creation time:		Sun Jul 05 16:07:09 2020

#	Modifying user name:	Administrator
#	Modification time:	Sun Jul 05 16:09:16 2020

@<TRIPOS>MOLECULE
WHQ-2014-SQER-761-61
   51    54     1     0     0
SMALL
MULLIKEN_CHARGES
INVALID_CHARGES
Gaussian 16 #p B3LYP/6-31G* opt
@<TRIPOS>ATOM
      1 C          -3.042998    2.968660    0.975521 C.3       1 <1>        -0.442200 
      2 C          -2.292799    2.984978   -0.370605 C.3       1 <1>        -0.355100 
      3 C          -0.838693    2.590940   -0.264136 C.ar      1 <1>         0.040800 
      4 C          -0.384715    1.248634   -0.272462 C.ar      1 <1>         0.525500 
      5 N          -1.260688    0.213009   -0.400684 N.pl3     1 <1>        -0.648800 
      6 C          -0.863137   -1.182908   -0.359029 C.3       1 <1>        -0.289300 
      7 N           0.920672    0.914841   -0.175295 N.ar      1 <1>        -0.600400 
      8 C           1.777703    1.926349   -0.056126 C.ar      1 <1>         0.710200 
      9 N           3.136974    1.684174    0.047105 N.pl3     1 <1>        -0.781300 
     10 C           3.889822    0.514605    0.056126 C.ar      1 <1>         0.384900 
     11 C           3.348789   -0.780830   -0.051806 C.ar      1 <1>        -0.162100 
     12 C           4.189165   -1.886306   -0.034342 C.ar      1 <1>        -0.157000 
     13 C           5.581195   -1.742036    0.089956 C.ar      1 <1>         0.129900 
     14 C           6.434523   -2.889735    0.105380 C.1       1 <1>         0.224900 
     15 N           7.129279   -3.824246    0.117571 N.1       1 <1>        -0.488100 
     16 C           6.120796   -0.447629    0.198843 C.ar      1 <1>        -0.141300 
     17 C           5.288069    0.658230    0.181882 C.ar      1 <1>        -0.205200 
     18 N           1.479680    3.236151   -0.012919 N.ar      1 <1>        -0.586900 
     19 C           0.186897    3.523488   -0.113352 C.ar      1 <1>         0.521500 
     20 O          -0.189365    4.838650   -0.059492 O.3       1 <1>        -0.571600 
     21 C           0.771069    5.833262   -0.016752 C.ar      1 <1>         0.371300 
     22 C           1.540375    6.115536   -1.169409 C.ar      1 <1>        -0.133200 
     23 C           2.417769    7.169505   -1.169207 C.ar      1 <1>        -0.208400 
     24 C           2.567190    7.995790   -0.023292 C.ar      1 <1>         0.152900 
     25 C           3.469222    9.092064   -0.010604 C.ar      1 <1>        -0.196500 
     26 C           3.604294    9.887755    1.103901 C.ar      1 <1>        -0.131000 
     27 C           2.835863    9.617336    2.259930 C.ar      1 <1>        -0.133600 
     28 C           1.949481    8.563304    2.284827 C.ar      1 <1>        -0.194800 
     29 C           1.787800    7.723569    1.151036 C.ar      1 <1>         0.125500 
     30 C           0.889767    6.614230    1.113771 C.ar      1 <1>        -0.203500 
     31 CL         -0.087872    6.226836    2.517355 Cl        1 <1>         0.006900 
     32 H          -3.011588    1.978917    1.447060 H         1 <1>         0.136600 
     33 H          -2.589947    3.681191    1.671974 H         1 <1>         0.173600 
     34 H          -4.094950    3.245264    0.839471 H         1 <1>         0.147000 
     35 H          -2.802388    2.326863   -1.089407 H         1 <1>         0.131300 
     36 H          -2.353380    3.990794   -0.796250 H         1 <1>         0.172300 
     37 H          -2.242938    0.426538   -0.346911 H         1 <1>         0.338100 
     38 H          -0.405306   -1.451637    0.600992 H         1 <1>         0.171200 
     39 H          -0.144535   -1.405752   -1.153671 H         1 <1>         0.179500 
     40 H          -1.754059   -1.797201   -0.510674 H         1 <1>         0.153600 
     41 H           3.655722    2.547910    0.143199 H         1 <1>         0.347100 
     42 H           2.279429   -0.897722   -0.145691 H         1 <1>         0.188200 
     43 H           3.763859   -2.881652   -0.117917 H         1 <1>         0.152300 
     44 H           7.193921   -0.318113    0.296352 H         1 <1>         0.155700 
     45 H           5.717825    1.653678    0.267071 H         1 <1>         0.136100 
     46 H           1.414219    5.482363   -2.040840 H         1 <1>         0.148200 
     47 H           3.009059    7.387862   -2.054340 H         1 <1>         0.140400 
     48 H           4.054280    9.290810   -0.905297 H         1 <1>         0.135100 
     49 H           4.298885   10.723080    1.099053 H         1 <1>         0.135600 
     50 H           2.945521   10.247688    3.138038 H         1 <1>         0.137000 
     51 H           1.364830    8.363480    3.175367 H         1 <1>         0.157300 
@<TRIPOS>BOND
     1   23   47 1    
     2   22   46 1    
     3   25   48 1    
     4   22   23 ar   
     5   23   24 ar   
     6   21   22 ar   
     7    2   35 1    
     8    2   36 1    
     9   24   25 ar   
    10   25   26 ar   
    11   24   29 ar   
    12    6   39 1    
    13   20   21 1    
    14   21   30 ar   
    15    3    2 1    
    16    2    1 1    
    17   19   20 1    
    18    3   19 ar   
    19    4    3 ar   
    20   19   18 ar   
    21   18    8 ar   
    22    5    4 1    
    23    4    7 ar   
    24    5   37 1    
    25    5    6 1    
    26    8    7 ar   
    27    8    9 1    
    28   26   49 1    
    29    6   40 1    
    30    9   41 1    
    31    9   10 1    
    32    6   38 1    
    33   26   27 ar   
    34   10   11 ar   
    35   10   17 ar   
    36   11   42 1    
    37   17   45 1    
    38   11   12 ar   
    39   17   16 ar   
    40   12   43 1    
    41   12   13 ar   
    42   16   13 ar   
    43   16   44 1    
    44   29   30 ar   
    45   29   28 ar   
    46   13   14 1    
    47   30   31 1    
    48   14   15 3    
    49    1   34 1    
    50    1   32 1    
    51    1   33 1    
    52   27   28 ar   
    53   27   50 1    
    54   28   51 1    
@<TRIPOS>SUBSTRUCTURE
     1 ****       35 TEMP              0 ****  ****    0 ROOT 
