#	Name:			WHQ-2014-SQER-761-63
#	Creating user name:	Administrator
#	Creation time:		Sun Jul 05 16:07:09 2020

#	Modifying user name:	Administrator
#	Modification time:	Sun Jul 05 16:09:16 2020

@<TRIPOS>MOLECULE
WHQ-2014-SQER-761-63
   52    55     1     0     0
SMALL
MULLIKEN_CHARGES
INVALID_CHARGES
Gaussian 16 #p B3LYP/6-31G* opt
@<TRIPOS>ATOM
      1 C          -2.812649    3.067286   -1.796483 C.3       1 <1>        -0.438100 
      2 C          -2.295955    2.982648   -0.347077 C.3       1 <1>        -0.357000 
      3 C          -0.841372    2.590657   -0.238185 C.ar      1 <1>         0.039900 
      4 C          -0.384404    1.248256   -0.277076 C.ar      1 <1>         0.529600 
      5 N          -1.257768    0.213592   -0.408664 N.pl3     1 <1>        -0.650100 
      6 C          -0.857008   -1.181851   -0.435086 C.3       1 <1>        -0.289000 
      7 N           0.920430    0.914983   -0.176833 N.ar      1 <1>        -0.600200 
      8 C           1.777835    1.925934   -0.053359 C.ar      1 <1>         0.709600 
      9 N           3.135460    1.682473    0.056109 N.pl3     1 <1>        -0.780700 
     10 C           3.887621    0.511062    0.067372 C.ar      1 <1>         0.384000 
     11 C           5.286540    0.654930    0.181297 C.ar      1 <1>        -0.205400 
     12 C           6.118420   -0.451692    0.203857 C.ar      1 <1>        -0.141100 
     13 C           5.576427   -1.746389    0.112698 C.ar      1 <1>         0.130600 
     14 C           6.428424   -2.895240    0.135412 C.1       1 <1>         0.225800 
     15 N           7.121249   -3.830768    0.154117 N.1       1 <1>        -0.486200 
     16 C           4.183704   -1.890519   -0.001096 C.ar      1 <1>        -0.156700 
     17 C           3.344203   -0.784355   -0.024043 C.ar      1 <1>        -0.161900 
     18 N           1.480793    3.236821   -0.027190 N.ar      1 <1>        -0.586900 
     19 C           0.186859    3.524871   -0.122670 C.ar      1 <1>         0.511900 
     20 O          -0.182781    4.843331   -0.137894 O.3       1 <1>        -0.576800 
     21 C           0.717948    5.839008    0.208983 C.ar      1 <1>         0.375800 
     22 C           1.348089    5.840338    1.478812 C.ar      1 <1>        -0.135900 
     23 C           2.148712    6.897780    1.834261 C.ar      1 <1>        -0.204100 
     24 C           2.352152    7.995402    0.951875 C.ar      1 <1>         0.143900 
     25 C           3.172004    9.094511    1.299526 C.ar      1 <1>        -0.215900 
     26 C           3.348637   10.151295    0.419761 C.ar      1 <1>         0.130700 
     27 C           4.182394   11.258972    0.783561 C.1       1 <1>         0.234500 
     28 N           4.858136   12.161171    1.072524 N.1       1 <1>        -0.479400 
     29 C           2.702066   10.141286   -0.850200 C.ar      1 <1>        -0.143700 
     30 C           1.901036    9.084193   -1.205187 C.ar      1 <1>        -0.194700 
     31 C           1.700978    7.985442   -0.324972 C.ar      1 <1>         0.142200 
     32 C           0.882216    6.880786   -0.672127 C.ar      1 <1>        -0.249400 
     33 H          -2.257172    3.826852   -2.355951 H         1 <1>         0.161300 
     34 H          -2.694051    2.114756   -2.326294 H         1 <1>         0.141400 
     35 H          -3.874769    3.337105   -1.817672 H         1 <1>         0.149300 
     36 H          -2.914795    2.276550    0.226102 H         1 <1>         0.132100 
     37 H          -2.434279    3.953930    0.136475 H         1 <1>         0.172200 
     38 H          -2.234175    0.432749   -0.515047 H         1 <1>         0.338700 
     39 H          -0.345534   -1.466616    0.490900 H         1 <1>         0.176700 
     40 H          -1.755430   -1.793957   -0.543202 H         1 <1>         0.155100 
     41 H          -0.184516   -1.389595   -1.274828 H         1 <1>         0.176600 
     42 H           3.658000    2.546092    0.128363 H         1 <1>         0.346800 
     43 H           5.718185    1.650616    0.252000 H         1 <1>         0.137000 
     44 H           7.192309   -0.322313    0.291809 H         1 <1>         0.157500 
     45 H           3.756981   -2.886263   -0.072058 H         1 <1>         0.153300 
     46 H           2.274449   -0.901397   -0.112458 H         1 <1>         0.187700 
     47 H           1.189430    5.006709    2.152992 H         1 <1>         0.152300 
     48 H           2.634897    6.908946    2.806257 H         1 <1>         0.146200 
     49 H           3.666380    9.107190    2.266477 H         1 <1>         0.159500 
     50 H           2.851942   10.976620   -1.526255 H         1 <1>         0.158500 
     51 H           1.407871    9.076899   -2.173605 H         1 <1>         0.145500 
     52 H           0.377856    6.853240   -1.633061 H         1 <1>         0.146700 
@<TRIPOS>BOND
     1   23   48 1    
     2   22   47 1    
     3   25   49 1    
     4   22   23 ar   
     5   23   24 ar   
     6   21   22 ar   
     7    6   39 1    
     8    2   36 1    
     9   24   25 ar   
    10   25   26 ar   
    11    2   37 1    
    12   24   31 ar   
    13    3    2 1    
    14    2    1 1    
    15    6   40 1    
    16    5   38 1    
    17   20   21 1    
    18   21   32 ar   
    19    5    6 1    
    20    4    5 1    
    21    4    3 ar   
    22   19    3 ar   
    23    6   41 1    
    24    7    4 ar   
    25   27   28 3    
    26   19   20 1    
    27   18   19 ar   
    28    8    7 ar   
    29   17   46 1    
    30    8   18 ar   
    31    9    8 1    
    32   26   27 1    
    33   17   16 ar   
    34   10   17 ar   
    35   16   45 1    
    36    9   10 1    
    37    9   42 1    
    38   16   13 ar   
    39   10   11 ar   
    40   26   29 ar   
    41   13   14 1    
    42   13   12 ar   
    43   11   43 1    
    44   11   12 ar   
    45   14   15 3    
    46   12   44 1    
    47   31   32 ar   
    48   31   30 ar   
    49   32   52 1    
    50    1   35 1    
    51    1   34 1    
    52    1   33 1    
    53   29   30 ar   
    54   29   50 1    
    55   30   51 1    
@<TRIPOS>SUBSTRUCTURE
     1 ****       28 TEMP              0 ****  ****    0 ROOT 
