#	Name:			WHQ-2014-SQER-761-56
#	Creating user name:	Administrator
#	Creation time:		Sun Jul 05 16:07:08 2020

#	Modifying user name:	Administrator
#	Modification time:	Sun Jul 05 16:09:16 2020

@<TRIPOS>MOLECULE
WHQ-2014-SQER-761-56
   48    51     1     0     0
SMALL
MULLIKEN_CHARGES
INVALID_CHARGES
Gaussian 16 #p B3LYP/6-31G* opt
@<TRIPOS>ATOM
      1 C          -0.874570   -1.178007   -0.449869 C.3       1 <1>        -0.287900 
      2 N          -1.264034    0.219439   -0.398888 N.pl3     1 <1>        -0.649000 
      3 C          -0.380546    1.247042   -0.276816 C.ar      1 <1>         0.527600 
      4 N           0.923682    0.910723   -0.180462 N.ar      1 <1>        -0.601300 
      5 C           1.776980    1.925471   -0.056058 C.ar      1 <1>         0.707400 
      6 N           3.136961    1.685911    0.052899 N.pl3     1 <1>        -0.780800 
      7 C           3.892270    0.518280    0.063202 C.ar      1 <1>         0.385000 
      8 C           5.288322    0.663756    0.210616 C.ar      1 <1>        -0.205500 
      9 C           6.123370   -0.440168    0.229768 C.ar      1 <1>        -0.141500 
     10 C           5.588744   -1.734938    0.101507 C.ar      1 <1>         0.129600 
     11 C           6.444369   -2.880880    0.119880 C.1       1 <1>         0.224600 
     12 N           7.140790   -3.813972    0.134614 N.1       1 <1>        -0.488500 
     13 C           4.199036   -1.881073   -0.045157 C.ar      1 <1>        -0.156800 
     14 C           3.356258   -0.777620   -0.065182 C.ar      1 <1>        -0.162500 
     15 N           1.477597    3.234156   -0.016490 N.ar      1 <1>        -0.584800 
     16 C           0.184050    3.527846   -0.116931 C.ar      1 <1>         0.512200 
     17 O          -0.189956    4.838688   -0.062095 O.3       1 <1>        -0.581500 
     18 C           0.768518    5.849929   -0.081287 C.ar      1 <1>         0.367000 
     19 C           1.587256    6.038661   -1.220709 C.ar      1 <1>        -0.136600 
     20 C           2.448609    7.108548   -1.261552 C.ar      1 <1>        -0.211000 
     21 C           2.529241    8.033199   -0.184026 C.ar      1 <1>         0.145900 
     22 C           3.409266    9.147411   -0.203043 C.ar      1 <1>        -0.194200 
     23 C           3.459741   10.025512    0.856525 C.ar      1 <1>        -0.135100 
     24 C           2.628418    9.827544    1.985834 C.ar      1 <1>        -0.136300 
     25 C           1.762849    8.757646    2.034843 C.ar      1 <1>        -0.189800 
     26 C           1.687657    7.833327    0.958666 C.ar      1 <1>         0.128800 
     27 C           0.807940    6.717968    0.980843 C.ar      1 <1>        -0.243900 
     28 C          -0.836860    2.586997   -0.255124 C.ar      1 <1>         0.055900 
     29 C          -2.293913    2.946441   -0.367012 C.3       1 <1>        -0.561600 
     30 H          -0.230084   -1.385499   -1.311917 H         1 <1>         0.173700 
     31 H          -1.779962   -1.783828   -0.533360 H         1 <1>         0.153200 
     32 H          -0.335791   -1.472573    0.457187 H         1 <1>         0.177300 
     33 H          -2.239183    0.449928   -0.495146 H         1 <1>         0.337100 
     34 H           3.652953    2.551025    0.151088 H         1 <1>         0.347300 
     35 H           5.714288    1.659379    0.311243 H         1 <1>         0.136300 
     36 H           7.194682   -0.309065    0.344281 H         1 <1>         0.155500 
     37 H           3.777484   -2.876679   -0.144759 H         1 <1>         0.151900 
     38 H           2.288746   -0.895937   -0.178086 H         1 <1>         0.187500 
     39 H           1.522793    5.336507   -2.044580 H         1 <1>         0.142000 
     40 H           3.081238    7.262747   -2.132419 H         1 <1>         0.135100 
     41 H           4.045420    9.296169   -1.072609 H         1 <1>         0.130600 
     42 H           4.137794   10.874156    0.829869 H         1 <1>         0.131200 
     43 H           2.676260   10.526213    2.816812 H         1 <1>         0.131800 
     44 H           1.124040    8.605062    2.901627 H         1 <1>         0.131600 
     45 H           0.159614    6.549772    1.835571 H         1 <1>         0.138900 
     46 H          -2.885240    2.518747    0.455665 H         1 <1>         0.156500 
     47 H          -2.426351    4.028857   -0.337875 H         1 <1>         0.193000 
     48 H          -2.733157    2.585447   -1.308488 H         1 <1>         0.154300 
@<TRIPOS>BOND
     1   20   40 1    
     2   19   39 1    
     3   22   41 1    
     4   19   20 ar   
     5   20   21 ar   
     6   18   19 ar   
     7   21   22 ar   
     8   22   23 ar   
     9   29   48 1    
    10    1   30 1    
    11   21   26 ar   
    12   17   18 1    
    13   18   27 ar   
    14   23   42 1    
    15   16   17 1    
    16   29   47 1    
    17   16   15 ar   
    18   28   16 ar   
    19    5   15 ar   
    20    6   34 1    
    21   28   29 1    
    22   29   46 1    
    23    3   28 ar   
    24    5    6 1    
    25    6    7 1    
    26    4    5 ar   
    27    8   35 1    
    28    7    8 ar   
    29    7   14 ar   
    30    8    9 ar   
    31    3    4 ar   
    32    2    3 1    
    33   14   38 1    
    34   14   13 ar   
    35    2   33 1    
    36    9   36 1    
    37    9   10 ar   
    38    2    1 1    
    39   23   24 ar   
    40   13   10 ar   
    41   13   37 1    
    42   10   11 1    
    43    1   31 1    
    44    1   32 1    
    45   11   12 3    
    46   26   27 ar   
    47   26   25 ar   
    48   27   45 1    
    49   24   25 ar   
    50   24   43 1    
    51   25   44 1    
@<TRIPOS>SUBSTRUCTURE
     1 ****       34 TEMP              0 ****  ****    0 ROOT 
