#	Name:			WHQ-2014-SQER-761-65
#	Creating user name:	Administrator
#	Creation time:		Sun Jul 05 16:07:09 2020

#	Modifying user name:	Administrator
#	Modification time:	Sun Jul 05 16:09:16 2020

@<TRIPOS>MOLECULE
WHQ-2014-SQER-761-65
   54    57     1     0     0
SMALL
MULLIKEN_CHARGES
INVALID_CHARGES
Gaussian 16 #p B3LYP/6-31G* opt
@<TRIPOS>ATOM
      1 C          -0.820356   -1.185687   -0.312057 C.3       1 <1>        -0.288500 
      2 N          -1.248531    0.199676   -0.396415 N.pl3     1 <1>        -0.648000 
      3 C          -0.389714    1.253689   -0.273654 C.ar      1 <1>         0.508500 
      4 N           0.916447    0.918833   -0.173159 N.ar      1 <1>        -0.598700 
      5 C           1.777148    1.924693   -0.055952 C.ar      1 <1>         0.707900 
      6 N           3.137013    1.679555    0.040968 N.pl3     1 <1>        -0.781200 
      7 C           3.886901    0.508556    0.048443 C.ar      1 <1>         0.384600 
      8 C           3.341347   -0.785761   -0.050904 C.ar      1 <1>        -0.162300 
      9 C           4.178407   -1.893722   -0.034503 C.ar      1 <1>        -0.157600 
     10 C           5.571683   -1.753303    0.080071 C.ar      1 <1>         0.129700 
     11 C           6.421562   -2.903566    0.095116 C.1       1 <1>         0.224700 
     12 N           7.113435   -3.840095    0.107193 N.1       1 <1>        -0.488300 
     13 C           6.115886   -0.460024    0.180004 C.ar      1 <1>        -0.141500 
     14 C           5.286584    0.648317    0.164197 C.ar      1 <1>        -0.205200 
     15 N           1.480850    3.232353   -0.004720 N.ar      1 <1>        -0.582800 
     16 C           0.190081    3.528723   -0.111436 C.ar      1 <1>         0.510100 
     17 O          -0.162191    4.847007   -0.036054 O.3       1 <1>        -0.578400 
     18 C           0.817996    5.839375   -0.049947 C.ar      1 <1>         0.367300 
     19 C           1.602483    6.047250   -1.209769 C.ar      1 <1>        -0.137900 
     20 C           2.484844    7.099977   -1.246561 C.ar      1 <1>        -0.211000 
     21 C           2.620433    7.988053   -0.143957 C.ar      1 <1>         0.146400 
     22 C           3.523104    9.084086   -0.157900 C.ar      1 <1>        -0.194300 
     23 C           3.627237    9.926817    0.926232 C.ar      1 <1>        -0.135000 
     24 C           2.829579    9.710086    2.076134 C.ar      1 <1>        -0.136200 
     25 C           1.943306    8.657045    2.120886 C.ar      1 <1>        -0.189900 
     26 C           1.812945    7.769115    1.019614 C.ar      1 <1>         0.128200 
     27 C           0.910434    6.671911    1.036599 C.ar      1 <1>        -0.243100 
     28 C          -0.845464    2.600064   -0.273502 C.ar      1 <1>         0.039300 
     29 C          -2.310323    2.996007   -0.426817 C.3       1 <1>        -0.149200 
     30 C          -2.563521    3.893437   -1.655977 C.3       1 <1>        -0.446100 
     31 C          -2.892985    3.618130    0.858530 C.3       1 <1>        -0.442200 
     32 H          -0.365874   -1.422640    0.658352 H         1 <1>         0.168100 
     33 H          -0.089638   -1.411381   -1.094178 H         1 <1>         0.180300 
     34 H          -1.696537   -1.822337   -0.458557 H         1 <1>         0.152100 
     35 H          -2.231546    0.385747   -0.290221 H         1 <1>         0.335700 
     36 H           3.657648    2.542564    0.132887 H         1 <1>         0.347300 
     37 H           2.271006   -0.899437   -0.137399 H         1 <1>         0.188900 
     38 H           3.749504   -2.888065   -0.111312 H         1 <1>         0.152000 
     39 H           7.190028   -0.333504    0.269788 H         1 <1>         0.155600 
     40 H           5.719903    1.642796    0.242156 H         1 <1>         0.136300 
     41 H           1.495688    5.372453   -2.052065 H         1 <1>         0.142600 
     42 H           3.091702    7.268725   -2.132821 H         1 <1>         0.135700 
     43 H           4.133126    9.247438   -1.043404 H         1 <1>         0.131000 
     44 H           4.321990   10.761852    0.903179 H         1 <1>         0.131600 
     45 H           2.919728   10.380780    2.926326 H         1 <1>         0.132200 
     46 H           1.330271    8.489998    3.003457 H         1 <1>         0.131900 
     47 H           0.288098    6.490100    1.907916 H         1 <1>         0.140000 
     48 H          -2.884747    2.080427   -0.617876 H         1 <1>         0.107200 
     49 H          -2.187458    3.420203   -2.569794 H         1 <1>         0.144100 
     50 H          -2.075066    4.864594   -1.546964 H         1 <1>         0.170700 
     51 H          -3.639316    4.065251   -1.781177 H         1 <1>         0.139000 
     52 H          -3.963634    3.820992    0.734277 H         1 <1>         0.139800 
     53 H          -2.393608    4.561166    1.096400 H         1 <1>         0.169100 
     54 H          -2.771565    2.943955    1.714177 H         1 <1>         0.139500 
@<TRIPOS>BOND
     1   25   46 1    
     2   24   45 1    
     3   31   54 1    
     4   27   47 1    
     5   25   24 ar   
     6   26   25 ar   
     7   24   23 ar   
     8   31   53 1    
     9   31   52 1    
    10   29   31 1    
    11    1   32 1    
    12   27   26 ar   
    13   18   27 ar   
    14   26   21 ar   
    15    2   35 1    
    16    1   34 1    
    17    2    1 1    
    18    1   33 1    
    19    9   38 1    
    20   11   12 3    
    21   23   44 1    
    22   23   22 ar   
    23    8    9 ar   
    24    9   10 ar   
    25    8   37 1    
    26   10   11 1    
    27    3    2 1    
    28    7    8 ar   
    29   13   10 ar   
    30    3    4 ar   
    31    5    4 ar   
    32   28    3 ar   
    33    7   14 ar   
    34    6    7 1    
    35   13   39 1    
    36   14   13 ar   
    37    5    6 1    
    38   15    5 ar   
    39   14   40 1    
    40    6   36 1    
    41   16   28 ar   
    42   28   29 1    
    43   16   15 ar   
    44   17   16 1    
    45   17   18 1    
    46   29   48 1    
    47   29   30 1    
    48   18   19 ar   
    49   21   22 ar   
    50   21   20 ar   
    51   22   43 1    
    52   30   50 1    
    53   30   51 1    
    54   30   49 1    
    55   19   20 ar   
    56   19   41 1    
    57   20   42 1    
@<TRIPOS>SUBSTRUCTURE
     1 ****       32 TEMP              0 ****  ****    0 ROOT 
