#	Name:			WHQ-2014-SQER-761-53
#	Creating user name:	Administrator
#	Creation time:		Sun Jul 05 16:07:08 2020

#	Modifying user name:	Administrator
#	Modification time:	Sun Jul 05 16:09:16 2020

@<TRIPOS>MOLECULE
WHQ-2014-SQER-761-53
   45    48     1     0     0
SMALL
MULLIKEN_CHARGES
INVALID_CHARGES
Gaussian 16 #p B3LYP/6-31G* opt
@<TRIPOS>ATOM
      1 C          -2.694344    0.329625   -0.471802 C.3       1 <1>        -0.301200 
      2 N          -1.253899    0.207298   -0.403424 N.pl3     1 <1>        -0.636100 
      3 C          -0.389312    1.247848   -0.275807 C.ar      1 <1>         0.568900 
      4 C          -0.822521    2.585938   -0.246703 C.ar      1 <1>        -0.281400 
      5 C           0.189105    3.537454   -0.118542 C.ar      1 <1>         0.535700 
      6 O          -0.051752    4.877945   -0.058196 O.3       1 <1>        -0.542900 
      7 C          -1.330587    5.365578   -0.303527 C.ar      1 <1>         0.324800 
      8 C          -1.797254    5.443992   -1.638555 C.ar      1 <1>        -0.152200 
      9 C          -3.027190    6.004443   -1.892238 C.ar      1 <1>        -0.205500 
     10 C          -3.836488    6.510997   -0.838586 C.ar      1 <1>         0.144900 
     11 C          -5.108929    7.096457   -1.073960 C.ar      1 <1>        -0.193300 
     12 C          -5.866035    7.581563   -0.031385 C.ar      1 <1>        -0.134300 
     13 C          -5.382461    7.503508    1.297752 C.ar      1 <1>        -0.135500 
     14 C          -4.152577    6.943004    1.560204 C.ar      1 <1>        -0.189300 
     15 C          -3.347229    6.432334    0.506890 C.ar      1 <1>         0.128000 
     16 C          -2.075893    5.844895    0.746005 C.ar      1 <1>        -0.236500 
     17 N           1.479772    3.239587   -0.021157 N.ar      1 <1>        -0.568500 
     18 C           1.769606    1.925757   -0.055858 C.ar      1 <1>         0.713700 
     19 N           3.128170    1.683461    0.054082 N.pl3     1 <1>        -0.776900 
     20 C           3.883156    0.515208    0.062615 C.ar      1 <1>         0.385900 
     21 C           3.347345   -0.781306   -0.058306 C.ar      1 <1>        -0.156100 
     22 C           4.190620   -1.884454   -0.038977 C.ar      1 <1>        -0.153600 
     23 C           5.580869   -1.737138    0.099828 C.ar      1 <1>         0.129400 
     24 C           6.437078   -2.882742    0.118122 C.1       1 <1>         0.224700 
     25 N           7.133704   -3.815749    0.132997 N.1       1 <1>        -0.488500 
     26 C           6.115730   -0.441733    0.220351 C.ar      1 <1>        -0.141100 
     27 C           5.279979    0.661733    0.201783 C.ar      1 <1>        -0.205700 
     28 N           0.916910    0.910241   -0.180460 N.ar      1 <1>        -0.594600 
     29 H          -3.005835    0.930070   -1.336073 H         1 <1>         0.170200 
     30 H          -3.112724    0.787349    0.435021 H         1 <1>         0.168500 
     31 H          -3.123543   -0.668495   -0.580422 H         1 <1>         0.167400 
     32 H          -0.831370   -0.708463   -0.366549 H         1 <1>         0.337400 
     33 H          -1.865201    2.860160   -0.307977 H         1 <1>         0.153500 
     34 H          -1.168757    5.069613   -2.440281 H         1 <1>         0.149400 
     35 H          -3.392524    6.074001   -2.913891 H         1 <1>         0.139700 
     36 H          -5.475752    7.156315   -2.095966 H         1 <1>         0.133500 
     37 H          -6.837723    8.027634   -0.224435 H         1 <1>         0.134500 
     38 H          -5.987994    7.890528    2.112693 H         1 <1>         0.135300 
     39 H          -3.779809    6.884029    2.579946 H         1 <1>         0.135700 
     40 H          -1.682713    5.781242    1.756291 H         1 <1>         0.146800 
     41 H           3.644534    2.549225    0.144051 H         1 <1>         0.347900 
     42 H           2.279523   -0.900754   -0.165448 H         1 <1>         0.172700 
     43 H           3.768952   -2.880460   -0.133043 H         1 <1>         0.152100 
     44 H           7.187505   -0.309720    0.328256 H         1 <1>         0.155700 
     45 H           5.705962    1.657849    0.296077 H         1 <1>         0.136800 
@<TRIPOS>BOND
     1    9   35 1    
     2    8   34 1    
     3   11   36 1    
     4    8    9 ar   
     5    9   10 ar   
     6    7    8 ar   
     7   10   11 ar   
     8   11   12 ar   
     9    1   29 1    
    10   10   15 ar   
    11    6    7 1    
    12    7   16 ar   
    13    5    6 1    
    14    5   17 ar   
    15   18   17 ar   
    16    4    5 ar   
    17   19   41 1    
    18   27   45 1    
    19    4   33 1    
    20    3    4 ar   
    21   18   19 1    
    22   28   18 ar   
    23   19   20 1    
    24   20   27 ar   
    25   27   26 ar   
    26   20   21 ar   
    27    3   28 ar   
    28    2    3 1    
    29   26   44 1    
    30   26   23 ar   
    31   12   37 1    
    32   21   42 1    
    33   21   22 ar   
    34    2    1 1    
    35    2   32 1    
    36   23   22 ar   
    37   23   24 1    
    38   22   43 1    
    39    1   31 1    
    40    1   30 1    
    41   24   25 3    
    42   12   13 ar   
    43   15   16 ar   
    44   15   14 ar   
    45   16   40 1    
    46   13   14 ar   
    47   13   38 1    
    48   14   39 1    
@<TRIPOS>SUBSTRUCTURE
     1 ****       45 TEMP              0 ****  ****    0 ROOT 
