#	Name:			WHQ-2014-SQER-761-60
#	Creating user name:	Administrator
#	Creation time:		Sun Jul 05 16:07:09 2020

#	Modifying user name:	Administrator
#	Modification time:	Sun Jul 05 16:09:16 2020

@<TRIPOS>MOLECULE
WHQ-2014-SQER-761-60
   51    54     1     0     0
SMALL
MULLIKEN_CHARGES
INVALID_CHARGES
Gaussian 16 #p B3LYP/6-31G* opt
@<TRIPOS>ATOM
      1 C          -3.073112    3.067803    0.877898 C.3       1 <1>        -0.438600 
      2 C          -2.281578    2.998557   -0.441913 C.3       1 <1>        -0.355800 
      3 C          -0.837009    2.591263   -0.274876 C.ar      1 <1>         0.045600 
      4 C          -0.385333    1.248449   -0.272140 C.ar      1 <1>         0.523900 
      5 N          -1.260870    0.212850   -0.401124 N.pl3     1 <1>        -0.649100 
      6 C          -0.863156   -1.183085   -0.373025 C.3       1 <1>        -0.288900 
      7 N           0.919537    0.915062   -0.165759 N.ar      1 <1>        -0.601000 
      8 C           1.777305    1.926912   -0.054285 C.ar      1 <1>         0.710900 
      9 N           3.137738    1.684543    0.036701 N.pl3     1 <1>        -0.781400 
     10 C           3.890333    0.515083    0.041120 C.ar      1 <1>         0.385200 
     11 C           3.345873   -0.781862   -0.024516 C.ar      1 <1>        -0.162100 
     12 C           4.186086   -1.887484   -0.009247 C.ar      1 <1>        -0.157000 
     13 C           5.581195   -1.742228    0.071170 C.ar      1 <1>         0.129700 
     14 C           6.434117   -2.890293    0.086422 C.1       1 <1>         0.224700 
     15 N           7.128458   -3.825006    0.099287 N.1       1 <1>        -0.488400 
     16 C           6.124318   -0.446383    0.137055 C.ar      1 <1>        -0.141400 
     17 C           5.291893    0.659751    0.122209 C.ar      1 <1>        -0.205200 
     18 N           1.479408    3.236581   -0.005507 N.ar      1 <1>        -0.586900 
     19 C           0.187056    3.521927   -0.110879 C.ar      1 <1>         0.523400 
     20 O          -0.192266    4.836242   -0.035698 O.3       1 <1>        -0.575000 
     21 C           0.766724    5.830695   -0.128693 C.ar      1 <1>         0.339900 
     22 C           1.414756    6.271083    1.046550 C.ar      1 <1>        -0.142900 
     23 C           2.293204    7.323934    0.991025 C.ar      1 <1>        -0.207100 
     24 C           2.564354    7.985368   -0.236267 C.ar      1 <1>         0.154200 
     25 C           3.470227    9.076822   -0.306615 C.ar      1 <1>        -0.198000 
     26 C           3.725151    9.712652   -1.499656 C.ar      1 <1>        -0.130300 
     27 C           3.078893    9.279857   -2.681185 C.ar      1 <1>        -0.133900 
     28 C           2.193286    8.225856   -2.652123 C.ar      1 <1>        -0.186800 
     29 C           1.908690    7.547944   -1.437249 C.ar      1 <1>         0.087900 
     30 C           1.003449    6.451156   -1.335983 C.ar      1 <1>        -0.016800 
     31 BR          0.079808    5.802988   -2.874930 Br        1 <1>        -0.108700 
     32 H          -2.629494    3.808410    1.551215 H         1 <1>         0.162200 
     33 H          -3.074889    2.103894    1.401458 H         1 <1>         0.136600 
     34 H          -4.114794    3.355396    0.694953 H         1 <1>         0.147600 
     35 H          -2.307173    3.978484   -0.928289 H         1 <1>         0.179500 
     36 H          -2.780306    2.308601   -1.137664 H         1 <1>         0.130800 
     37 H          -2.243636    0.426490   -0.358404 H         1 <1>         0.337400 
     38 H          -0.133181   -1.394176   -1.160404 H         1 <1>         0.180700 
     39 H          -0.418572   -1.465174    0.589611 H         1 <1>         0.169500 
     40 H          -1.751289   -1.795982   -0.544995 H         1 <1>         0.153300 
     41 H           3.659058    2.549407    0.103966 H         1 <1>         0.346600 
     42 H           2.274250   -0.899349   -0.085769 H         1 <1>         0.188100 
     43 H           3.757962   -2.883903   -0.059818 H         1 <1>         0.152100 
     44 H           7.199955   -0.315991    0.199209 H         1 <1>         0.155400 
     45 H           5.724462    1.656290    0.172470 H         1 <1>         0.135700 
     46 H           1.196952    5.757826    1.976924 H         1 <1>         0.148800 
     47 H           2.793921    7.666315    1.892635 H         1 <1>         0.140600 
     48 H           3.960942    9.401193    0.607968 H         1 <1>         0.135300 
     49 H           4.421100   10.545894   -1.537763 H         1 <1>         0.135900 
     50 H           3.283170    9.784122   -3.621573 H         1 <1>         0.137300 
     51 H           1.701064    7.897557   -3.560515 H         1 <1>         0.156300 
@<TRIPOS>BOND
     1   23   47 1    
     2   22   46 1    
     3    1   32 1    
     4   22   23 ar   
     5   23   24 ar   
     6   25   48 1    
     7   21   22 ar   
     8    1   33 1    
     9    1   34 1    
    10    2    1 1    
    11   24   25 ar   
    12   25   26 ar   
    13   29   24 ar   
    14   20   21 1    
    15   21   30 ar   
    16   19   20 1    
    17   19   18 ar   
    18    8   18 ar   
    19    3   19 ar   
    20    9   41 1    
    21    6   39 1    
    22   17   45 1    
    23    8    9 1    
    24    9   10 1    
    25    7    8 ar   
    26    3    2 1    
    27    4    3 ar   
    28    2   35 1    
    29    2   36 1    
    30   26   49 1    
    31   10   17 ar   
    32   17   16 ar   
    33   10   11 ar   
    34   26   27 ar   
    35    4    7 ar   
    36   16   44 1    
    37    5    4 1    
    38   16   13 ar   
    39    5   37 1    
    40   30   29 ar   
    41   29   28 ar   
    42   11   42 1    
    43   11   12 ar   
    44   30   31 1    
    45    5    6 1    
    46   13   12 ar   
    47   13   14 1    
    48   12   43 1    
    49    6   40 1    
    50    6   38 1    
    51   14   15 3    
    52   27   28 ar   
    53   27   50 1    
    54   28   51 1    
@<TRIPOS>SUBSTRUCTURE
     1 ****       45 TEMP              0 ****  ****    0 ROOT 
