#	Name:			WHQ-2014-SQER-761-54
#	Creating user name:	Administrator
#	Creation time:		Sun Jul 05 16:07:08 2020

#	Modifying user name:	Administrator
#	Modification time:	Sun Jul 05 16:09:16 2020

@<TRIPOS>MOLECULE
WHQ-2014-SQER-761-54
   45    48     1     0     0
SMALL
MULLIKEN_CHARGES
INVALID_CHARGES
Gaussian 16 #p B3LYP/6-31G* opt
@<TRIPOS>ATOM
      1 C          -2.688515    0.329354   -0.542686 C.3       1 <1>        -0.300600 
      2 N          -1.253396    0.206071   -0.401625 N.pl3     1 <1>        -0.638000 
      3 C          -0.393467    1.249607   -0.277955 C.ar      1 <1>         0.571600 
      4 C          -0.822860    2.585639   -0.250629 C.ar      1 <1>        -0.278700 
      5 C           0.190083    3.533501   -0.117535 C.ar      1 <1>         0.573200 
      6 O          -0.200966    4.836801   -0.111156 O.3       1 <1>        -0.572800 
      7 C           0.717992    5.850007    0.149855 C.ar      1 <1>         0.364200 
      8 C           1.357734    5.932351    1.410283 C.ar      1 <1>        -0.136100 
      9 C           2.177567    7.000547    1.683932 C.ar      1 <1>        -0.207000 
     10 C           2.389834    8.028545    0.724367 C.ar      1 <1>         0.144800 
     11 C           3.232226    9.140511    0.988767 C.ar      1 <1>        -0.221100 
     12 C           3.404110   10.111182    0.031438 C.ar      1 <1>         0.078600 
     13 BR          4.540386   11.608599    0.388042 Br        1 <1>        -0.130200 
     14 C           2.759092   10.036256   -1.224416 C.ar      1 <1>        -0.152800 
     15 C           1.937621    8.966588   -1.498032 C.ar      1 <1>        -0.190800 
     16 C           1.728083    7.936513   -0.542577 C.ar      1 <1>         0.137000 
     17 C           0.889026    6.821740   -0.804420 C.ar      1 <1>        -0.242900 
     18 N           1.479861    3.242142   -0.018119 N.ar      1 <1>        -0.587700 
     19 C           1.771443    1.923578   -0.054598 C.ar      1 <1>         0.715900 
     20 N           3.129263    1.683392    0.050944 N.pl3     1 <1>        -0.778400 
     21 C           3.884154    0.513504    0.057618 C.ar      1 <1>         0.385100 
     22 C           3.344110   -0.783033   -0.037047 C.ar      1 <1>        -0.155700 
     23 C           4.186421   -1.887194   -0.018688 C.ar      1 <1>        -0.153400 
     24 C           5.578903   -1.739603    0.093597 C.ar      1 <1>         0.130100 
     25 C           6.433972   -2.886301    0.111485 C.1       1 <1>         0.225700 
     26 N           7.129458   -3.819979    0.126197 N.1       1 <1>        -0.486700 
     27 C           6.117647   -0.443839    0.188034 C.ar      1 <1>        -0.140800 
     28 C           5.282831    0.660578    0.170139 C.ar      1 <1>        -0.205900 
     29 N           0.916903    0.913656   -0.178352 N.ar      1 <1>        -0.594100 
     30 H          -3.117642   -0.671210   -0.625477 H         1 <1>         0.168400 
     31 H          -2.962382    0.896054   -1.442554 H         1 <1>         0.169400 
     32 H          -3.139537    0.823973    0.327494 H         1 <1>         0.170000 
     33 H          -0.824127   -0.706831   -0.422893 H         1 <1>         0.338300 
     34 H          -1.858796    2.884583   -0.326844 H         1 <1>         0.146900 
     35 H           1.191420    5.150942    2.143167 H         1 <1>         0.147700 
     36 H           2.672475    7.072983    2.648905 H         1 <1>         0.141300 
     37 H           3.735510    9.216513    1.947207 H         1 <1>         0.153700 
     38 H           2.917374   10.820101   -1.956763 H         1 <1>         0.155400 
     39 H           1.437772    8.901510   -2.461113 H         1 <1>         0.142700 
     40 H           0.375689    6.734616   -1.757200 H         1 <1>         0.144000 
     41 H           3.648968    2.548387    0.127168 H         1 <1>         0.348100 
     42 H           2.274369   -0.902419   -0.124040 H         1 <1>         0.173700 
     43 H           3.762069   -2.883712   -0.092057 H         1 <1>         0.153500 
     44 H           7.191355   -0.311920    0.274978 H         1 <1>         0.157100 
     45 H           5.711822    1.657315    0.243318 H         1 <1>         0.137400 
@<TRIPOS>BOND
     1    9   36 1    
     2    8   35 1    
     3   11   37 1    
     4    8    9 ar   
     5    9   10 ar   
     6    7    8 ar   
     7    1   32 1    
     8   10   11 ar   
     9   11   12 ar   
    10   10   16 ar   
    11    6    7 1    
    12    7   17 ar   
    13    5    6 1    
    14    5   18 ar   
    15    4    5 ar   
    16   12   13 1    
    17   19   18 ar   
    18    4   34 1    
    19    3    4 ar   
    20   20   41 1    
    21   19   20 1    
    22   29   19 ar   
    23   20   21 1    
    24    3   29 ar   
    25    2    3 1    
    26   28   45 1    
    27   21   28 ar   
    28   21   22 ar   
    29    2    1 1    
    30    2   33 1    
    31   28   27 ar   
    32   22   42 1    
    33    1   30 1    
    34    1   31 1    
    35   22   23 ar   
    36   27   44 1    
    37   27   24 ar   
    38   23   24 ar   
    39   23   43 1    
    40   24   25 1    
    41   25   26 3    
    42   12   14 ar   
    43   16   17 ar   
    44   16   15 ar   
    45   17   40 1    
    46   14   15 ar   
    47   14   38 1    
    48   15   39 1    
@<TRIPOS>SUBSTRUCTURE
     1 ****       37 TEMP              0 ****  ****    0 ROOT 
