#	Name:			YZH-2014-BMC-3220-2-7s
#	Creating user name:	Administrator
#	Creation time:		Sun Jul 05 16:09:16 2020

#	Modifying user name:	Administrator
#	Modification time:	Sun Jul 05 16:09:16 2020

@<TRIPOS>MOLECULE
YZH-2014-BMC-3220-2-7s
   39    41     1     0     0
SMALL
MULLIKEN_CHARGES
INVALID_CHARGES
Gaussian 16 #p B3LYP/6-31G* opt
@<TRIPOS>ATOM
      1 C          -4.857200    4.290900    0.817500 C.3       1 <1>        -0.531900 
      2 C          -4.211400    2.985100    0.419300 C.ar      1 <1>         0.181600 
      3 C          -3.982000    1.979000    1.372100 C.ar      1 <1>        -0.177400 
      4 C          -3.402700    0.767200    1.015900 C.ar      1 <1>        -0.159800 
      5 C          -3.028400    0.520500   -0.313100 C.ar      1 <1>         0.193900 
      6 C          -2.361600   -0.766700   -0.726800 C.3       1 <1>        -0.296600 
      7 BR         -3.616600   -2.313100   -0.484700 Br        1 <1>        -0.132200 
      8 C          -1.046400   -1.028500   -0.011200 C.ar      1 <1>         0.347000 
      9 C          -0.910900   -1.762600    1.172900 C.ar      1 <1>        -0.197100 
     10 C           0.369500   -1.827300    1.709200 C.ar      1 <1>         0.069000 
     11 N           1.435300   -1.242700    1.151500 N.ar      1 <1>        -0.474400 
     12 C           1.194500   -0.576500    0.014100 C.ar      1 <1>         0.694000 
     13 N           2.220400    0.055600   -0.655300 N.pl3     1 <1>        -0.765000 
     14 C           3.587100    0.168100   -0.396300 C.ar      1 <1>         0.382800 
     15 C           4.236400   -0.405400    0.712700 C.ar      1 <1>        -0.159700 
     16 C           5.605100   -0.231700    0.876700 C.ar      1 <1>        -0.153000 
     17 C           6.361100    0.509200   -0.046500 C.ar      1 <1>         0.131400 
     18 C           7.770000    0.680500    0.135200 C.1       1 <1>         0.227600 
     19 N           8.916300    0.821000    0.281900 N.1       1 <1>        -0.484300 
     20 C           5.710100    1.081100   -1.154000 C.ar      1 <1>        -0.140300 
     21 C           4.346200    0.911600   -1.323000 C.ar      1 <1>        -0.205300 
     22 N          -0.001500   -0.442700   -0.596200 N.ar      1 <1>        -0.540600 
     23 C          -3.254300    1.516300   -1.267300 C.ar      1 <1>        -0.174700 
     24 C          -3.836300    2.731700   -0.903400 C.ar      1 <1>        -0.182100 
     25 H          -4.822500    5.020200    0.002300 H         1 <1>         0.158900 
     26 H          -4.359600    4.734200    1.688200 H         1 <1>         0.165100 
     27 H          -5.910900    4.146500    1.088900 H         1 <1>         0.169900 
     28 H          -4.264900    2.150500    2.408300 H         1 <1>         0.130300 
     29 H          -3.245800    0.003100    1.771800 H         1 <1>         0.138500 
     30 H          -2.163800   -0.756900   -1.797100 H         1 <1>         0.201800 
     31 H          -1.750100   -2.272200    1.627600 H         1 <1>         0.168900 
     32 H           0.558700   -2.376300    2.629900 H         1 <1>         0.158700 
     33 H           1.887400    0.519400   -1.491100 H         1 <1>         0.347100 
     34 H           3.661900   -0.976400    1.427500 H         1 <1>         0.189400 
     35 H           6.099700   -0.676800    1.734300 H         1 <1>         0.158700 
     36 H           6.280200    1.656300   -1.876300 H         1 <1>         0.158300 
     37 H           3.853700    1.358700   -2.183500 H         1 <1>         0.137000 
     38 H          -2.970600    1.344800   -2.302700 H         1 <1>         0.134900 
     39 H          -4.001500    3.492400   -1.662600 H         1 <1>         0.129700 
@<TRIPOS>BOND
     1   23   38 1    
     2   21   37 1    
     3   20   36 1    
     4    6   30 1    
     5   24   39 1    
     6   13   33 1    
     7   21   20 ar   
     8   14   21 ar   
     9   24   23 ar   
    10   23    5 ar   
    11   20   17 ar   
    12    2   24 ar   
    13    6    7 1    
    14    5    6 1    
    15    6    8 1    
    16   13   14 1    
    17   12   13 1    
    18    8   22 ar   
    19   22   12 ar   
    20   14   15 ar   
    21    5    4 ar   
    22   17   18 1    
    23   17   16 ar   
    24    8    9 ar   
    25    1   25 1    
    26   12   11 ar   
    27   18   19 3    
    28    2    1 1    
    29    2    3 ar   
    30   15   16 ar   
    31   15   34 1    
    32    1   27 1    
    33    1   26 1    
    34   16   35 1    
    35    4    3 ar   
    36    4   29 1    
    37   11   10 ar   
    38    9   31 1    
    39    9   10 ar   
    40    3   28 1    
    41   10   32 1    
@<TRIPOS>SUBSTRUCTURE
     1 ****       30 TEMP              0 ****  ****    0 ROOT 
