#	Name:			HYP-2004-BMCL-3173-4L
#	Creating user name:	Administrator
#	Creation time:		Sun Jul 05 16:55:26 2020

#	Modifying user name:	Administrator
#	Modification time:	Sun Jul 05 16:57:59 2020

@<TRIPOS>MOLECULE
HYP-2004-BMCL-3173-4L
   46    48     1     0     0
SMALL
MULLIKEN_CHARGES
INVALID_CHARGES
Gaussian 16 #p B3LYP/6-31G* opt
@<TRIPOS>ATOM
      1 C           2.542949   -4.591513   -0.515629 C.3       1 <1>        -0.447600 
      2 C           2.873279   -3.322255    0.293281 C.3       1 <1>        -0.340000 
      3 C           1.856464   -2.225569    0.094680 C.ar      1 <1>         0.052900 
      4 C           1.985878   -1.157503   -0.760111 C.ar      1 <1>         0.248000 
      5 C           3.210342   -0.915549   -1.640057 C.3       1 <1>        -0.440800 
      6 C           4.517478   -0.524784   -0.956973 C.ar      1 <1>         0.137900 
      7 C           5.615145   -1.355064   -1.088453 C.ar      1 <1>        -0.214400 
      8 C           6.866897   -1.043612   -0.508110 C.ar      1 <1>        -0.129700 
      9 C           7.021649    0.117774    0.208186 C.ar      1 <1>        -0.192200 
     10 C           5.934915    1.019980    0.357927 C.ar      1 <1>         0.144300 
     11 C           6.086444    2.236624    1.075400 C.ar      1 <1>        -0.196800 
     12 C           5.040816    3.121884    1.202110 C.ar      1 <1>        -0.130700 
     13 C           3.792692    2.824091    0.608226 C.ar      1 <1>        -0.142900 
     14 C           3.608812    1.650015   -0.089636 C.ar      1 <1>        -0.206200 
     15 C           4.663834    0.706571   -0.234244 C.ar      1 <1>         0.067200 
     16 N           0.985825   -0.214354   -0.946504 N.ar      1 <1>        -0.530300 
     17 C          -0.119343   -0.349887   -0.282038 C.ar      1 <1>         0.347500 
     18 S          -1.465850    0.801494   -0.455607 S.3       1 <1>         0.184400 
     19 C          -0.852960    1.780663   -1.857528 C.3       1 <1>        -0.517900 
     20 C          -0.819799    1.023737   -3.182983 C.2       1 <1>         0.642900 
     21 O          -1.380923   -0.014855   -3.433647 O.2       1 <1>        -0.452400 
     22 O          -0.083504    1.727510   -4.066221 O.3       1 <1>        -0.445500 
     23 C           0.008600    1.154187   -5.383349 C.3       1 <1>        -0.221000 
     24 N          -0.332763   -1.364454    0.596678 N.ar      1 <1>        -0.653500 
     25 C           0.617512   -2.380115    0.849498 C.ar      1 <1>         0.584700 
     26 O           0.343933   -3.277143    1.637678 O.2       1 <1>        -0.524000 
     27 H           3.290705   -5.370766   -0.328394 H         1 <1>         0.144500 
     28 H           1.563616   -4.985093   -0.227632 H         1 <1>         0.172600 
     29 H           2.527387   -4.388506   -1.593104 H         1 <1>         0.137300 
     30 H           3.872790   -2.963916    0.039645 H         1 <1>         0.151900 
     31 H           2.884157   -3.582706    1.357451 H         1 <1>         0.169100 
     32 H           2.921181   -0.138172   -2.355731 H         1 <1>         0.175100 
     33 H           3.399479   -1.823198   -2.224784 H         1 <1>         0.165800 
     34 H           5.516947   -2.277073   -1.657154 H         1 <1>         0.127200 
     35 H           7.699811   -1.730105   -0.633099 H         1 <1>         0.131100 
     36 H           7.977183    0.367625    0.663079 H         1 <1>         0.130100 
     37 H           7.053134    2.457790    1.521938 H         1 <1>         0.129500 
     38 H           5.171774    4.049450    1.752828 H         1 <1>         0.129500 
     39 H           2.970658    3.528643    0.704480 H         1 <1>         0.125400 
     40 H           2.643201    1.438154   -0.535106 H         1 <1>         0.167700 
     41 H           0.139296    2.174816   -1.636424 H         1 <1>         0.231900 
     42 H          -1.545179    2.625453   -1.944933 H         1 <1>         0.212300 
     43 H           0.631460    1.840897   -5.956694 H         1 <1>         0.169700 
     44 H           0.468182    0.163938   -5.335270 H         1 <1>         0.176800 
     45 H          -0.983982    1.066044   -5.832796 H         1 <1>         0.173600 
     46 H          -1.218357   -1.471009    1.081532 H         1 <1>         0.355000 
@<TRIPOS>BOND
     1   23   43 1    
     2   23   44 1    
     3   23   45 1    
     4   22   23 1    
     5    7   34 1    
     6    1   29 1    
     7    5   33 1    
     8    8   35 1    
     9    1   27 1    
    10    7    8 ar   
    11    6    7 ar   
    12    5   32 1    
    13    8    9 ar   
    14   20   22 1    
    15    1   28 1    
    16    2    1 1    
    17    5    6 1    
    18    4    5 1    
    19   20   21 2    
    20    6   15 ar   
    21    2   30 1    
    22   19   20 1    
    23    9   36 1    
    24   10    9 ar   
    25    3    2 1    
    26    2   31 1    
    27    4    3 ar   
    28   16    4 ar   
    29   15   10 ar   
    30   15   14 ar   
    31    3   25 ar   
    32   17   16 ar   
    33   10   11 ar   
    34   14   40 1    
    35   19   41 1    
    36   19   42 1    
    37   18   19 1    
    38   14   13 ar   
    39   17   24 ar   
    40   17   18 1    
    41   25   24 ar   
    42   25   26 2    
    43   11   37 1    
    44   11   12 ar   
    45   24   46 1    
    46   13   12 ar   
    47   13   39 1    
    48   12   38 1    
@<TRIPOS>SUBSTRUCTURE
     1 ****       33 TEMP              0 ****  ****    0 ROOT 
