#	Name:			HYP-2004-BMCL-3173-4N
#	Creating user name:	Administrator
#	Creation time:		Sun Jul 05 16:55:26 2020

#	Modifying user name:	Administrator
#	Modification time:	Sun Jul 05 16:57:59 2020

@<TRIPOS>MOLECULE
HYP-2004-BMCL-3173-4N
   58    61     1     0     0
SMALL
MULLIKEN_CHARGES
INVALID_CHARGES
Gaussian 16 #p B3LYP/6-31G* opt
@<TRIPOS>ATOM
      1 C          -8.960867    0.536226   -0.928651 C.3       1 <1>        -0.533700 
      2 C          -7.537452    0.330082   -0.473555 C.ar      1 <1>         0.187200 
      3 C          -7.114026   -0.920190    0.009619 C.ar      1 <1>        -0.177000 
      4 C          -5.812145   -1.114636    0.446260 C.ar      1 <1>        -0.150200 
      5 C          -4.882738   -0.057882    0.421675 C.ar      1 <1>         0.081600 
      6 C          -3.505470   -0.333597    0.899027 C.2       1 <1>         0.428700 
      7 O          -3.164487   -1.467575    1.231498 O.2       1 <1>        -0.469700 
      8 C          -2.467131    0.781740    0.976020 C.3       1 <1>        -0.566200 
      9 S          -1.403104    0.868489   -0.530313 S.3       1 <1>         0.203300 
     10 C          -0.145496   -0.371643   -0.240513 C.ar      1 <1>         0.317800 
     11 N           0.944450   -0.205417   -0.924388 N.ar      1 <1>        -0.495500 
     12 C           1.943876   -1.148762   -0.779179 C.ar      1 <1>         0.182800 
     13 C           3.126691   -0.891741   -1.690871 C.3       1 <1>        -0.421500 
     14 C           4.282082   -0.098120   -1.089115 C.ar      1 <1>         0.128300 
     15 C           4.229006    0.413017    0.191465 C.ar      1 <1>        -0.192900 
     16 C           5.302709    1.154499    0.741524 C.ar      1 <1>        -0.135500 
     17 C           6.436808    1.385409    0.003352 C.ar      1 <1>        -0.190200 
     18 C           6.542436    0.887560   -1.323256 C.ar      1 <1>         0.138000 
     19 C           7.704090    1.118528   -2.106981 C.ar      1 <1>        -0.194300 
     20 C           7.801152    0.640711   -3.394080 C.ar      1 <1>        -0.132900 
     21 C           6.730100   -0.092594   -3.954008 C.ar      1 <1>        -0.133600 
     22 C           5.589720   -0.335664   -3.219022 C.ar      1 <1>        -0.196300 
     23 C           5.454146    0.138825   -1.884810 C.ar      1 <1>         0.071500 
     24 C           1.872216   -2.206002    0.102138 C.ar      1 <1>         0.061400 
     25 C           2.994644   -3.212133    0.311203 C.3       1 <1>        -0.144400 
     26 C           2.595977   -4.620817   -0.175354 C.3       1 <1>        -0.452700 
     27 C           3.476569   -3.243946    1.776488 C.3       1 <1>        -0.456600 
     28 C           0.636174   -2.395172    0.856863 C.ar      1 <1>         0.570300 
     29 O           0.373703   -3.301900    1.640807 O.2       1 <1>        -0.523700 
     30 N          -0.350165   -1.407124    0.608859 N.ar      1 <1>        -0.662700 
     31 C          -5.299924    1.191907   -0.062303 C.ar      1 <1>        -0.173300 
     32 C          -6.607168    1.376491   -0.506419 C.ar      1 <1>        -0.185700 
     33 H          -9.301116   -0.292319   -1.559852 H         1 <1>         0.171200 
     34 H          -9.643230    0.587592   -0.070057 H         1 <1>         0.176400 
     35 H          -9.072066    1.465280   -1.495716 H         1 <1>         0.164200 
     36 H          -7.818533   -1.748047    0.037230 H         1 <1>         0.139500 
     37 H          -5.484631   -2.081748    0.812542 H         1 <1>         0.173800 
     38 H          -1.835070    0.611870    1.851170 H         1 <1>         0.219100 
     39 H          -2.906866    1.776229    1.065221 H         1 <1>         0.203500 
     40 H           3.506459   -1.845239   -2.075082 H         1 <1>         0.166600 
     41 H           2.734621   -0.342583   -2.555290 H         1 <1>         0.181900 
     42 H           3.344429    0.247098    0.797584 H         1 <1>         0.132700 
     43 H           5.219196    1.537673    1.754998 H         1 <1>         0.128700 
     44 H           7.266799    1.951709    0.419273 H         1 <1>         0.126800 
     45 H           8.521274    1.685918   -1.667148 H         1 <1>         0.128500 
     46 H           8.696407    0.826066   -3.981564 H         1 <1>         0.128600 
     47 H           6.806932   -0.466246   -4.971606 H         1 <1>         0.128300 
     48 H           4.779588   -0.896855   -3.672718 H         1 <1>         0.132400 
     49 H           3.847884   -2.883380   -0.290424 H         1 <1>         0.134700 
     50 H           3.438433   -5.312890   -0.057405 H         1 <1>         0.136800 
     51 H           1.750436   -5.003301    0.401987 H         1 <1>         0.181700 
     52 H           2.314481   -4.609344   -1.235089 H         1 <1>         0.133300 
     53 H           3.817332   -2.253382    2.098653 H         1 <1>         0.138700 
     54 H           4.320845   -3.936666    1.875275 H         1 <1>         0.136000 
     55 H           2.676472   -3.573420    2.443534 H         1 <1>         0.181300 
     56 H          -1.266440   -1.578864    1.039396 H         1 <1>         0.394500 
     57 H          -4.610219    2.027975   -0.116007 H         1 <1>         0.140900 
     58 H          -6.909630    2.349015   -0.885991 H         1 <1>         0.137400 
@<TRIPOS>BOND
     1   21   47 1    
     2   26   52 1    
     3   22   48 1    
     4   22   21 ar   
     5   21   20 ar   
     6    1   33 1    
     7   26   50 1    
     8   13   40 1    
     9   23   22 ar   
    10   26   51 1    
    11   25   26 1    
    12   13   41 1    
    13   20   46 1    
    14    3   36 1    
    15   19   20 ar   
    16    1   35 1    
    17    2    1 1    
    18    1   34 1    
    19   12   13 1    
    20   13   14 1    
    21    3    2 ar   
    22    4    3 ar   
    23   25   49 1    
    24   32    2 ar   
    25   12   24 ar   
    26   11   12 ar   
    27   24   25 1    
    28   25   27 1    
    29    4   37 1    
    30   14   23 ar   
    31   23   18 ar   
    32    5    4 ar   
    33   28   24 ar   
    34   10   11 ar   
    35   32   58 1    
    36   31   32 ar   
    37   14   15 ar   
    38   10   30 ar   
    39    9   10 1    
    40   30   28 ar   
    41   28   29 2    
    42   18   19 ar   
    43   19   45 1    
    44    5   31 ar   
    45    6    5 1    
    46   30   56 1    
    47    8    9 1    
    48   31   57 1    
    49    6    7 2    
    50   18   17 ar   
    51   27   54 1    
    52    6    8 1    
    53   27   55 1    
    54   27   53 1    
    55   15   42 1    
    56   15   16 ar   
    57    8   39 1    
    58    8   38 1    
    59   17   16 ar   
    60   17   44 1    
    61   16   43 1    
@<TRIPOS>SUBSTRUCTURE
     1 ****       36 TEMP              0 ****  ****    0 ROOT 
