#	Name:			HYP-2004-BMCL-3173-4A
#	Creating user name:	Administrator
#	Creation time:		Sun Jul 05 16:55:26 2020

#	Modifying user name:	Administrator
#	Modification time:	Sun Jul 05 16:57:59 2020

@<TRIPOS>MOLECULE
HYP-2004-BMCL-3173-4A
   52    55     1     0     0
SMALL
MULLIKEN_CHARGES
INVALID_CHARGES
Gaussian 16 #p B3LYP/6-31G* opt
@<TRIPOS>ATOM
      1 C          -8.989627    0.599078   -0.750487 C.3       1 <1>        -0.533900 
      2 C          -7.556965    0.387134   -0.328239 C.ar      1 <1>         0.187400 
      3 C          -6.620270    1.426250   -0.392747 C.ar      1 <1>        -0.186000 
      4 C          -5.303198    1.234957    0.018466 C.ar      1 <1>        -0.173300 
      5 C          -4.882587   -0.014301    0.500529 C.ar      1 <1>         0.081200 
      6 C          -3.495367   -0.297546    0.943292 C.2       1 <1>         0.429500 
      7 O          -3.154951   -1.432081    1.274694 O.2       1 <1>        -0.469500 
      8 C          -2.446391    0.809958    0.985464 C.3       1 <1>        -0.565900 
      9 S          -1.406317    0.862689   -0.539281 S.3       1 <1>         0.198500 
     10 C          -0.143145   -0.370096   -0.238071 C.ar      1 <1>         0.320700 
     11 N           0.949581   -0.203375   -0.919101 N.ar      1 <1>        -0.515100 
     12 C           1.952470   -1.142230   -0.769206 C.ar      1 <1>         0.249300 
     13 C           3.174340   -0.886779   -1.641802 C.3       1 <1>        -0.441000 
     14 C           4.414200   -0.361080   -0.924230 C.ar      1 <1>         0.134200 
     15 C           5.516453   -1.184160   -0.792464 C.ar      1 <1>        -0.210400 
     16 C           6.703713   -0.751684   -0.156444 C.ar      1 <1>        -0.130700 
     17 C           6.789130    0.523739    0.345212 C.ar      1 <1>        -0.192400 
     18 C           5.693773    1.419828    0.222253 C.ar      1 <1>         0.143300 
     19 C           5.775876    2.749211    0.716278 C.ar      1 <1>        -0.197800 
     20 C           4.721034    3.622385    0.583355 C.ar      1 <1>        -0.131100 
     21 C           3.532378    3.196654   -0.053155 C.ar      1 <1>        -0.142300 
     22 C           3.415399    1.912482   -0.540195 C.ar      1 <1>        -0.207500 
     23 C           4.484996    0.981225   -0.419085 C.ar      1 <1>         0.066400 
     24 C           1.854660   -2.216148    0.083564 C.ar      1 <1>         0.062400 
     25 C           2.920810   -3.261043    0.273690 C.3       1 <1>        -0.539300 
     26 C           0.630253   -2.395687    0.857076 C.ar      1 <1>         0.566400 
     27 O           0.385243   -3.301177    1.644407 O.2       1 <1>        -0.521400 
     28 N          -0.351089   -1.401506    0.614885 N.ar      1 <1>        -0.663800 
     29 C          -5.819003   -1.063851    0.557238 C.ar      1 <1>        -0.150000 
     30 C          -7.130337   -0.862780    0.153511 C.ar      1 <1>        -0.176800 
     31 H          -9.335432   -0.210088   -1.403814 H         1 <1>         0.171900 
     32 H          -9.116701    1.545624   -1.283972 H         1 <1>         0.164000 
     33 H          -9.657015    0.615511    0.120881 H         1 <1>         0.176200 
     34 H          -6.925617    2.398410   -0.770891 H         1 <1>         0.137400 
     35 H          -4.609404    2.065759   -0.058847 H         1 <1>         0.140500 
     36 H          -1.800338    0.647974    1.851827 H         1 <1>         0.221400 
     37 H          -2.875477    1.809697    1.066890 H         1 <1>         0.203400 
     38 H           3.448970   -1.822699   -2.141747 H         1 <1>         0.159800 
     39 H           2.866251   -0.186134   -2.424520 H         1 <1>         0.175600 
     40 H           5.474907   -2.193917   -1.193151 H         1 <1>         0.123500 
     41 H           7.544373   -1.435157   -0.071909 H         1 <1>         0.128500 
     42 H           7.696198    0.868905    0.835770 H         1 <1>         0.127200 
     43 H           6.696663    3.065838    1.201110 H         1 <1>         0.126400 
     44 H           4.798959    4.637527    0.963949 H         1 <1>         0.125700 
     45 H           2.700886    3.888785   -0.158359 H         1 <1>         0.126500 
     46 H           2.487797    1.601397   -1.008074 H         1 <1>         0.176400 
     47 H           3.317320   -3.618359   -0.684065 H         1 <1>         0.148100 
     48 H           2.498810   -4.108654    0.817618 H         1 <1>         0.190800 
     49 H           3.768920   -2.873878    0.850730 H         1 <1>         0.175800 
     50 H          -1.266020   -1.560970    1.052571 H         1 <1>         0.395900 
     51 H          -5.489178   -2.030622    0.922557 H         1 <1>         0.174200 
     52 H          -7.839933   -1.685016    0.206040 H         1 <1>         0.139700 
@<TRIPOS>BOND
     1   13   39 1    
     2   13   38 1    
     3   13   14 1    
     4   12   13 1    
     5    1   31 1    
     6   15   40 1    
     7    1   32 1    
     8   25   47 1    
     9   11   12 ar   
    10   10   11 ar   
    11   14   15 ar   
    12   14   23 ar   
    13   12   24 ar   
    14   22   46 1    
    15   15   16 ar   
    16    2    1 1    
    17    1   33 1    
    18    3   34 1    
    19    9   10 1    
    20    8    9 1    
    21    3    2 ar   
    22   30    2 ar   
    23    4    3 ar   
    24   23   22 ar   
    25   22   21 ar   
    26   23   18 ar   
    27   10   28 ar   
    28   16   41 1    
    29   16   17 ar   
    30   24   25 1    
    31   26   24 ar   
    32   30   52 1    
    33   29   30 ar   
    34   25   48 1    
    35   25   49 1    
    36    4   35 1    
    37    5    4 ar   
    38   21   45 1    
    39   21   20 ar   
    40    5   29 ar   
    41   29   51 1    
    42   18   17 ar   
    43   18   19 ar   
    44    6    5 1    
    45   17   42 1    
    46   28   26 ar   
    47   28   50 1    
    48   26   27 2    
    49    6    8 1    
    50    6    7 2    
    51   20   19 ar   
    52   20   44 1    
    53    8   37 1    
    54    8   36 1    
    55   19   43 1    
@<TRIPOS>SUBSTRUCTURE
     1 ****       31 TEMP              0 ****  ****    0 ROOT 
