#	Name:			HYP-2004-BMCL-3173-4F
#	Creating user name:	Administrator
#	Creation time:		Sun Jul 05 16:55:26 2020

#	Modifying user name:	Administrator
#	Modification time:	Sun Jul 05 16:57:59 2020

@<TRIPOS>MOLECULE
HYP-2004-BMCL-3173-4F
   43    45     1     0     0
SMALL
MULLIKEN_CHARGES
INVALID_CHARGES
Gaussian 16 #p B3LYP/6-31G* opt
@<TRIPOS>ATOM
      1 C          -3.077417   -0.786347    3.492999 C.3       1 <1>        -0.228400 
      2 O          -2.790293   -0.812520    2.077487 O.3       1 <1>        -0.459700 
      3 C          -3.421707    0.118906    1.320261 C.2       1 <1>         0.639300 
      4 O          -4.212449    0.918093    1.758388 O.2       1 <1>        -0.441600 
      5 C          -2.994347    0.017012   -0.132688 C.3       1 <1>        -0.556600 
      6 S          -1.401561    0.874756   -0.506738 S.3       1 <1>         0.215300 
      7 C          -0.153704   -0.383069   -0.265696 C.ar      1 <1>         0.311600 
      8 N           0.940732   -0.220328   -0.944188 N.ar      1 <1>        -0.508200 
      9 C           1.966908   -1.125150   -0.743640 C.ar      1 <1>         0.251000 
     10 C           3.218640   -0.832124   -1.559818 C.3       1 <1>        -0.443200 
     11 C           4.411764   -0.292961   -0.776303 C.ar      1 <1>         0.132700 
     12 C           5.522905   -1.095628   -0.601080 C.ar      1 <1>        -0.210400 
     13 C           6.666209   -0.649344    0.102388 C.ar      1 <1>        -0.131000 
     14 C           6.697416    0.618635    0.629003 C.ar      1 <1>        -0.191900 
     15 C           5.591378    1.494280    0.462900 C.ar      1 <1>         0.142700 
     16 C           5.618559    2.816247    0.982221 C.ar      1 <1>        -0.197300 
     17 C           4.554076    3.670023    0.806686 C.ar      1 <1>        -0.131000 
     18 C           3.411094    3.232149    0.098661 C.ar      1 <1>        -0.141100 
     19 C           3.348218    1.954510   -0.414487 C.ar      1 <1>        -0.208500 
     20 C           4.428024    1.042338   -0.249130 C.ar      1 <1>         0.068900 
     21 C           1.856478   -2.217279    0.086263 C.ar      1 <1>         0.060700 
     22 C           2.929287   -3.251639    0.294166 C.3       1 <1>        -0.536900 
     23 C           0.628212   -2.400858    0.848845 C.ar      1 <1>         0.566300 
     24 O           0.381129   -3.291547    1.654398 O.2       1 <1>        -0.528600 
     25 N          -0.346539   -1.404055    0.605028 N.ar      1 <1>        -0.660200 
     26 H          -4.142309   -0.961769    3.659498 H         1 <1>         0.183000 
     27 H          -2.796749    0.181441    3.914463 H         1 <1>         0.184800 
     28 H          -2.478473   -1.588301    3.922727 H         1 <1>         0.188600 
     29 H          -3.737955    0.540051   -0.736184 H         1 <1>         0.228400 
     30 H          -2.933908   -1.023670   -0.461637 H         1 <1>         0.216500 
     31 H           2.929904   -0.126546   -2.345229 H         1 <1>         0.178800 
     32 H           3.535260   -1.754268   -2.060715 H         1 <1>         0.161000 
     33 H           5.523804   -2.099021   -1.019438 H         1 <1>         0.123400 
     34 H           7.516145   -1.316213    0.219309 H         1 <1>         0.129500 
     35 H           7.570069    0.973660    1.172206 H         1 <1>         0.128700 
     36 H           6.505106    3.143161    1.520985 H         1 <1>         0.127800 
     37 H           4.589726    4.679569    1.207497 H         1 <1>         0.128300 
     38 H           2.573164    3.910007   -0.041844 H         1 <1>         0.130000 
     39 H           2.456278    1.635099   -0.942231 H         1 <1>         0.171400 
     40 H           3.743070   -2.870468    0.922446 H         1 <1>         0.178800 
     41 H           3.375075   -3.571229   -0.654643 H         1 <1>         0.150000 
     42 H           2.498318   -4.122669    0.792476 H         1 <1>         0.189100 
     43 H          -1.175455   -1.448679    1.197073 H         1 <1>         0.387900 
@<TRIPOS>BOND
     1   10   31 1    
     2   10   32 1    
     3    5   29 1    
     4    9   10 1    
     5   10   11 1    
     6    5   30 1    
     7    9    8 ar   
     8    8    7 ar   
     9    6    5 1    
    10    7    6 1    
    11    5    3 1    
    12   19   39 1    
    13   21    9 ar   
    14    7   25 ar   
    15   12   33 1    
    16   11   12 ar   
    17   11   20 ar   
    18   22   41 1    
    19   20   19 ar   
    20   19   18 ar   
    21   18   38 1    
    22   12   13 ar   
    23   21   22 1    
    24   21   23 ar   
    25   20   15 ar   
    26   25   23 ar   
    27   25   43 1    
    28   18   17 ar   
    29    3    4 2    
    30    3    2 1    
    31   22   42 1    
    32   22   40 1    
    33   23   24 2    
    34   13   34 1    
    35   13   14 ar   
    36   15   14 ar   
    37   15   16 ar   
    38   17   16 ar   
    39   17   37 1    
    40    2    1 1    
    41   14   35 1    
    42   16   36 1    
    43    1   26 1    
    44    1   27 1    
    45    1   28 1    
@<TRIPOS>SUBSTRUCTURE
     1 ****       39 TEMP              0 ****  ****    0 ROOT 
