#	Name:			HYP-2004-BMCL-3173-4Q
#	Creating user name:	Administrator
#	Creation time:		Sun Jul 05 16:55:26 2020

#	Modifying user name:	Administrator
#	Modification time:	Sun Jul 05 16:57:59 2020

@<TRIPOS>MOLECULE
HYP-2004-BMCL-3173-4Q
   55    58     1     0     0
SMALL
MULLIKEN_CHARGES
INVALID_CHARGES
Gaussian 16 #p B3LYP/6-31G* opt
@<TRIPOS>ATOM
      1 C           2.996923   -4.310126   -0.819535 C.3       1 <1>        -0.445400 
      2 C           2.919773   -3.294070    0.339015 C.3       1 <1>        -0.155600 
      3 C           4.309478   -2.770052    0.745729 C.3       1 <1>        -0.450000 
      4 C           1.872446   -2.211544    0.095192 C.ar      1 <1>         0.044400 
      5 C           1.949062   -1.149195   -0.777342 C.ar      1 <1>         0.183400 
      6 C           3.116265   -0.867064   -1.697822 C.3       1 <1>        -0.410500 
      7 C           4.049085    0.262003   -1.270996 C.ar      1 <1>         0.130500 
      8 C           3.900641    0.921725   -0.068515 C.ar      1 <1>        -0.186000 
      9 C           4.778242    1.961519    0.322205 C.ar      1 <1>        -0.136400 
     10 C           5.812255    2.342304   -0.496655 C.ar      1 <1>        -0.190200 
     11 C           6.012148    1.696032   -1.745903 C.ar      1 <1>         0.137800 
     12 C           7.076139    2.071847   -2.608478 C.ar      1 <1>        -0.194200 
     13 C           7.268378    1.443499   -3.817791 C.ar      1 <1>        -0.133100 
     14 C           6.395660    0.405162   -4.216419 C.ar      1 <1>        -0.133700 
     15 C           5.353512    0.016755   -3.402331 C.ar      1 <1>        -0.196000 
     16 C           5.123016    0.642263   -2.145448 C.ar      1 <1>         0.071700 
     17 N           0.943698   -0.206776   -0.918723 N.ar      1 <1>        -0.486900 
     18 C          -0.145365   -0.371006   -0.237711 C.ar      1 <1>         0.314400 
     19 S          -1.405573    0.866276   -0.536869 S.3       1 <1>         0.204600 
     20 C          -2.475864    0.781872    0.965336 C.3       1 <1>        -0.567500 
     21 C          -3.508585   -0.337440    0.886196 C.2       1 <1>         0.430900 
     22 O          -3.172620   -1.465737    1.240519 O.2       1 <1>        -0.468000 
     23 C          -4.878108   -0.075285    0.376594 C.ar      1 <1>         0.081800 
     24 C          -5.289980    1.169141   -0.131212 C.ar      1 <1>        -0.174000 
     25 C          -6.586142    1.350760   -0.604200 C.ar      1 <1>        -0.201500 
     26 C          -7.468746    0.276069   -0.557720 C.ar      1 <1>         0.398700 
     27 F          -8.721919    0.447543   -1.007381 F         1 <1>        -0.280700 
     28 C          -7.096228   -0.972101   -0.061788 C.ar      1 <1>        -0.196100 
     29 C          -5.798297   -1.140889    0.399140 C.ar      1 <1>        -0.152000 
     30 N          -0.351973   -1.402677    0.617180 N.ar      1 <1>        -0.663200 
     31 C           0.631605   -2.391573    0.855426 C.ar      1 <1>         0.561400 
     32 O           0.377755   -3.301036    1.637119 O.2       1 <1>        -0.520500 
     33 H           3.664614   -5.137454   -0.550412 H         1 <1>         0.144300 
     34 H           2.008895   -4.731852   -1.033632 H         1 <1>         0.154400 
     35 H           3.380016   -3.864720   -1.744930 H         1 <1>         0.140600 
     36 H           2.532186   -3.848103    1.199742 H         1 <1>         0.175800 
     37 H           4.832568   -2.253345   -0.064471 H         1 <1>         0.150700 
     38 H           4.237412   -2.074523    1.588845 H         1 <1>         0.148400 
     39 H           4.939385   -3.611231    1.058940 H         1 <1>         0.141600 
     40 H           2.678965   -0.605141   -2.670177 H         1 <1>         0.176800 
     41 H           3.700659   -1.776997   -1.855789 H         1 <1>         0.167200 
     42 H           3.090992    0.644806    0.598099 H         1 <1>         0.130200 
     43 H           4.624332    2.455091    1.278058 H         1 <1>         0.127500 
     44 H           6.490730    3.139822   -0.203499 H         1 <1>         0.126400 
     45 H           7.741325    2.872063   -2.291966 H         1 <1>         0.128400 
     46 H           8.087065    1.742198   -4.466897 H         1 <1>         0.128500 
     47 H           6.548229   -0.089524   -5.171987 H         1 <1>         0.128100 
     48 H           4.697213   -0.781935   -3.731508 H         1 <1>         0.130600 
     49 H          -2.919657    1.775214    1.049750 H         1 <1>         0.203600 
     50 H          -1.848467    0.616980    1.844677 H         1 <1>         0.220900 
     51 H          -4.602811    2.007046   -0.178193 H         1 <1>         0.151400 
     52 H          -6.919406    2.301852   -1.004964 H         1 <1>         0.163200 
     53 H          -7.819079   -1.780761   -0.047979 H         1 <1>         0.165100 
     54 H          -5.468469   -2.098674    0.786612 H         1 <1>         0.184300 
     55 H          -1.266599   -1.573347    1.049349 H         1 <1>         0.393800 
@<TRIPOS>BOND
     1    9   43 1    
     2   10   44 1    
     3    9   10 ar   
     4    8    9 ar   
     5   20   50 1    
     6   20   49 1    
     7   11   10 ar   
     8    8   42 1    
     9    3   38 1    
    10   20   21 1    
    11   19   20 1    
    12    7    8 ar   
    13   12   45 1    
    14   21   22 2    
    15   21   23 1    
    16   24   51 1    
    17   30   55 1    
    18   31   32 2    
    19    3   39 1    
    20    3   37 1    
    21    2    3 1    
    22   11   12 ar   
    23   16   11 ar   
    24   31   30 ar   
    25   18   30 ar   
    26    4   31 ar   
    27    2   36 1    
    28   18   19 1    
    29   23   24 ar   
    30   24   25 ar   
    31   23   29 ar   
    32   17   18 ar   
    33    7   16 ar   
    34    6    7 1    
    35   12   13 ar   
    36    4    2 1    
    37    5    4 ar   
    38    2    1 1    
    39    5   17 ar   
    40   25   52 1    
    41   25   26 ar   
    42   29   54 1    
    43   29   28 ar   
    44    5    6 1    
    45   16   15 ar   
    46   26   28 ar   
    47   26   27 1    
    48   28   53 1    
    49    6   41 1    
    50    6   40 1    
    51   13   46 1    
    52   13   14 ar   
    53    1   33 1    
    54    1   34 1    
    55    1   35 1    
    56   15   14 ar   
    57   15   48 1    
    58   14   47 1    
@<TRIPOS>SUBSTRUCTURE
     1 ****       51 TEMP              0 ****  ****    0 ROOT 
