#	Name:			HYP-2004-BMCL-3173-4D
#	Creating user name:	Administrator
#	Creation time:		Sun Jul 05 16:55:26 2020

#	Modifying user name:	Administrator
#	Modification time:	Sun Jul 05 16:57:59 2020

@<TRIPOS>MOLECULE
HYP-2004-BMCL-3173-4D
   49    52     1     0     0
SMALL
MULLIKEN_CHARGES
INVALID_CHARGES
Gaussian 16 #p B3LYP/6-31G* opt
@<TRIPOS>ATOM
      1 C           2.917296   -3.274729    0.303936 C.3       1 <1>        -0.549300 
      2 C           1.855103   -2.228001    0.092763 C.ar      1 <1>         0.060000 
      3 C           1.982581   -1.159164   -0.760941 C.ar      1 <1>         0.242100 
      4 C           3.227458   -0.924878   -1.594476 C.3       1 <1>        -0.409100 
      5 C           3.192920   -1.635104   -2.949826 C.ar      1 <1>         0.099800 
      6 C           2.104999   -1.423894   -3.778506 C.ar      1 <1>        -0.207600 
      7 C           2.007878   -2.037693   -5.046715 C.ar      1 <1>        -0.135700 
      8 C           3.007383   -2.868846   -5.492012 C.ar      1 <1>        -0.193300 
      9 C           4.150949   -3.111219   -4.688017 C.ar      1 <1>         0.140800 
     10 C           5.195272   -3.960179   -5.144965 C.ar      1 <1>        -0.194900 
     11 C           6.313200   -4.193171   -4.379335 C.ar      1 <1>        -0.133300 
     12 C           6.432544   -3.577400   -3.112006 C.ar      1 <1>        -0.136700 
     13 C           5.437692   -2.751438   -2.637537 C.ar      1 <1>        -0.200600 
     14 C           4.259672   -2.487269   -3.395143 C.ar      1 <1>         0.068400 
     15 N           0.995123   -0.205968   -0.940077 N.ar      1 <1>        -0.506400 
     16 C          -0.116100   -0.354989   -0.295236 C.ar      1 <1>         0.340900 
     17 S          -1.470291    0.808288   -0.437176 S.3       1 <1>         0.156400 
     18 C          -0.963107    1.731565   -1.946986 C.3       1 <1>        -0.549700 
     19 C          -1.624916    1.164008   -3.203386 C.2       1 <1>         0.425000 
     20 O          -0.981702    0.428317   -3.937486 O.2       1 <1>        -0.443400 
     21 C          -3.042630    1.513163   -3.513034 C.ar      1 <1>         0.082400 
     22 C          -3.611496    0.967616   -4.677913 C.ar      1 <1>        -0.155900 
     23 C          -4.923189    1.251880   -5.033763 C.ar      1 <1>        -0.196000 
     24 C          -5.669040    2.090866   -4.208453 C.ar      1 <1>         0.395000 
     25 F          -6.939691    2.371552   -4.545047 F         1 <1>        -0.284800 
     26 C          -5.143165    2.648305   -3.047700 C.ar      1 <1>        -0.202200 
     27 C          -3.825396    2.355213   -2.706001 C.ar      1 <1>        -0.177700 
     28 N          -0.340142   -1.380246    0.567655 N.ar      1 <1>        -0.651800 
     29 C           0.620371   -2.383822    0.850923 C.ar      1 <1>         0.572800 
     30 O           0.345009   -3.263629    1.656363 O.2       1 <1>        -0.521700 
     31 H           3.317293   -3.646489   -0.644499 H         1 <1>         0.176800 
     32 H           2.493049   -4.112595    0.861088 H         1 <1>         0.193500 
     33 H           3.760575   -2.882014    0.888393 H         1 <1>         0.159800 
     34 H           3.310580    0.155646   -1.757517 H         1 <1>         0.174800 
     35 H           4.101096   -1.226349   -1.015887 H         1 <1>         0.159500 
     36 H           1.300088   -0.769614   -3.457111 H         1 <1>         0.177100 
     37 H           1.133512   -1.842710   -5.661442 H         1 <1>         0.136300 
     38 H           2.941854   -3.348164   -6.466107 H         1 <1>         0.126300 
     39 H           5.091284   -4.423802   -6.123363 H         1 <1>         0.128800 
     40 H           7.103348   -4.844261   -4.743208 H         1 <1>         0.128700 
     41 H           7.317698   -3.756050   -2.507304 H         1 <1>         0.128000 
     42 H           5.569061   -2.291617   -1.664223 H         1 <1>         0.130100 
     43 H          -1.208572    2.780845   -1.769503 H         1 <1>         0.198000 
     44 H           0.118478    1.608703   -2.030775 H         1 <1>         0.252700 
     45 H          -2.998249    0.317705   -5.292764 H         1 <1>         0.176600 
     46 H          -5.376725    0.839785   -5.929112 H         1 <1>         0.160400 
     47 H          -5.761938    3.294877   -2.434835 H         1 <1>         0.158800 
     48 H          -3.419233    2.790044   -1.798547 H         1 <1>         0.146100 
     49 H          -1.229840   -1.489543    1.044133 H         1 <1>         0.354600 
@<TRIPOS>BOND
     1   29   30 2    
     2    1   32 1    
     3   23   46 1    
     4    8   38 1    
     5   28   49 1    
     6   10   39 1    
     7   28   29 ar   
     8   29    2 ar   
     9    1   31 1    
    10   22   23 ar   
    11   23   24 ar   
    12   24   25 1    
    13   22   45 1    
    14    2    1 1    
    15    1   33 1    
    16    7   37 1    
    17    7    8 ar   
    18    9    8 ar   
    19   16   28 ar   
    20    9   10 ar   
    21   10   11 ar   
    22   21   22 ar   
    23   26   24 ar   
    24    6    7 ar   
    25   11   40 1    
    26    3    2 ar   
    27   14    9 ar   
    28   12   11 ar   
    29    6   36 1    
    30    5    6 ar   
    31   17   16 1    
    32   16   15 ar   
    33   19   21 1    
    34   21   27 ar   
    35   26   47 1    
    36   27   26 ar   
    37   19   20 2    
    38    5   14 ar   
    39   14   13 ar   
    40   13   12 ar   
    41   12   41 1    
    42   15    3 ar   
    43    3    4 1    
    44    4    5 1    
    45   18   17 1    
    46   19   18 1    
    47   27   48 1    
    48   13   42 1    
    49    4   35 1    
    50    4   34 1    
    51   18   44 1    
    52   18   43 1    
@<TRIPOS>SUBSTRUCTURE
     1 ****       46 TEMP              0 ****  ****    0 ROOT 
