#	Name:			HYP-2004-BMCL-3173-4S
#	Creating user name:	Administrator
#	Creation time:		Sun Jul 05 16:55:26 2020

#	Modifying user name:	Administrator
#	Modification time:	Sun Jul 05 16:57:59 2020

@<TRIPOS>MOLECULE
HYP-2004-BMCL-3173-4S
   49    51     1     0     0
SMALL
MULLIKEN_CHARGES
INVALID_CHARGES
Gaussian 16 #p B3LYP/6-31G* opt
@<TRIPOS>ATOM
      1 C          -5.718481   -0.661727    1.021115 C.3       1 <1>        -0.228700 
      2 O          -4.647333    0.306223    0.998821 O.3       1 <1>        -0.429100 
      3 C          -3.413892   -0.189824    1.130904 C.2       1 <1>         0.652000 
      4 O          -3.170166   -1.374280    1.281877 O.2       1 <1>        -0.470100 
      5 C          -2.354983    0.891237    1.058367 C.3       1 <1>        -0.558100 
      6 S          -1.406900    0.867209   -0.523238 S.3       1 <1>         0.212300 
      7 C          -0.143666   -0.370797   -0.241704 C.ar      1 <1>         0.303800 
      8 N           0.950038   -0.205439   -0.913953 N.ar      1 <1>        -0.495300 
      9 C           1.947672   -1.153640   -0.783212 C.ar      1 <1>         0.242500 
     10 C           3.133688   -0.865811   -1.690819 C.3       1 <1>        -0.428600 
     11 C           2.753742   -0.661871   -3.152914 C.ar      1 <1>         0.126900 
     12 C           2.653289   -1.775204   -3.966197 C.ar      1 <1>        -0.203400 
     13 C           2.341864   -1.672020   -5.340611 C.ar      1 <1>        -0.129500 
     14 C           2.143557   -0.436756   -5.908901 C.ar      1 <1>        -0.192600 
     15 C           2.234432    0.740634   -5.121216 C.ar      1 <1>         0.137600 
     16 C           2.036808    2.024236   -5.699142 C.ar      1 <1>        -0.196100 
     17 C           2.116750    3.166300   -4.937608 C.ar      1 <1>        -0.132200 
     18 C           2.390477    3.069130   -3.553057 C.ar      1 <1>        -0.140900 
     19 C           2.586462    1.841232   -2.961766 C.ar      1 <1>        -0.174900 
     20 C           2.528415    0.636855   -3.718011 C.ar      1 <1>         0.082500 
     21 C           1.874542   -2.209522    0.098898 C.ar      1 <1>         0.026100 
     22 C           2.946787   -3.252191    0.405668 C.3       1 <1>        -0.157500 
     23 C           3.212533   -4.241537   -0.746641 C.3       1 <1>        -0.450900 
     24 C           4.250584   -2.651284    0.966750 C.3       1 <1>        -0.447300 
     25 C           0.630695   -2.389373    0.854951 C.ar      1 <1>         0.563400 
     26 O           0.378496   -3.292078    1.645995 O.2       1 <1>        -0.523000 
     27 N          -0.359222   -1.413891    0.596536 N.ar      1 <1>        -0.660600 
     28 H          -5.722002   -1.199562    1.971850 H         1 <1>         0.183300 
     29 H          -5.597563   -1.374669    0.202384 H         1 <1>         0.185600 
     30 H          -6.632611   -0.081603    0.899448 H         1 <1>         0.177500 
     31 H          -2.812666    1.881001    1.102748 H         1 <1>         0.220100 
     32 H          -1.663164    0.779757    1.897275 H         1 <1>         0.222100 
     33 H           3.852317   -1.681987   -1.631931 H         1 <1>         0.163500 
     34 H           3.648025    0.022087   -1.304949 H         1 <1>         0.168600 
     35 H           2.822935   -2.760578   -3.539492 H         1 <1>         0.131000 
     36 H           2.272365   -2.573725   -5.943199 H         1 <1>         0.127600 
     37 H           1.915500   -0.342076   -6.968083 H         1 <1>         0.126100 
     38 H           1.818257    2.084513   -6.763006 H         1 <1>         0.125900 
     39 H           1.964439    4.141277   -5.392959 H         1 <1>         0.125800 
     40 H           2.437880    3.971739   -2.949428 H         1 <1>         0.125300 
     41 H           2.756623    1.790504   -1.893020 H         1 <1>         0.136100 
     42 H           2.507862   -3.845697    1.213423 H         1 <1>         0.179100 
     43 H           3.724557   -3.777803   -1.596924 H         1 <1>         0.145000 
     44 H           3.848688   -5.062026   -0.393308 H         1 <1>         0.144800 
     45 H           2.276347   -4.677013   -1.112166 H         1 <1>         0.154400 
     46 H           4.911144   -3.454873    1.314363 H         1 <1>         0.144000 
     47 H           4.044412   -1.995564    1.819899 H         1 <1>         0.148300 
     48 H           4.807006   -2.069168    0.224435 H         1 <1>         0.142400 
     49 H          -1.280495   -1.587184    1.011950 H         1 <1>         0.395200 
@<TRIPOS>BOND
     1   18   40 1    
     2   24   47 1    
     3   19   41 1    
     4   19   18 ar   
     5   18   17 ar   
     6    5   32 1    
     7   24   48 1    
     8   10   34 1    
     9   24   46 1    
    10   22   24 1    
    11    5   31 1    
    12   20   19 ar   
    13   17   39 1    
    14    6    5 1    
    15    5    3 1    
    16   17   16 ar   
    17   10    9 1    
    18   10   33 1    
    19   11   10 1    
    20    9    8 ar   
    21    8    7 ar   
    22    7    6 1    
    23    9   21 ar   
    24    7   27 ar   
    25   21   22 1    
    26   21   25 ar   
    27   22   42 1    
    28   22   23 1    
    29   20   11 ar   
    30   20   15 ar   
    31   27   25 ar   
    32   27   49 1    
    33   25   26 2    
    34    3    2 1    
    35    3    4 2    
    36   11   12 ar   
    37   16   15 ar   
    38   16   38 1    
    39    2    1 1    
    40   15   14 ar   
    41   23   43 1    
    42   23   44 1    
    43   23   45 1    
    44    1   28 1    
    45    1   30 1    
    46    1   29 1    
    47   12   35 1    
    48   12   13 ar   
    49   14   13 ar   
    50   14   37 1    
    51   13   36 1    
@<TRIPOS>SUBSTRUCTURE
     1 ****       40 TEMP              0 ****  ****    0 ROOT 
