#	Name:			HYP-2004-BMCL-3173-4G
#	Creating user name:	Administrator
#	Creation time:		Sun Jul 05 16:55:26 2020

#	Modifying user name:	Administrator
#	Modification time:	Sun Jul 05 16:57:59 2020

@<TRIPOS>MOLECULE
HYP-2004-BMCL-3173-4G
   46    48     1     0     0
SMALL
MULLIKEN_CHARGES
INVALID_CHARGES
Gaussian 16 #p B3LYP/6-31G* opt
@<TRIPOS>ATOM
      1 C           1.035053    5.409734    0.487111 C.3       1 <1>        -0.464500 
      2 C           1.461388    3.952354    0.565526 C.3       1 <1>        -0.048900 
      3 O           0.416680    3.070911    0.076037 O.3       1 <1>        -0.436200 
      4 C           0.386273    2.850180   -1.243347 C.2       1 <1>         0.658300 
      5 O           1.144056    3.350058   -2.049354 O.2       1 <1>        -0.476500 
      6 C          -0.755206    1.941193   -1.684658 C.3       1 <1>        -0.524900 
      7 S          -1.465024    0.800066   -0.451804 S.3       1 <1>         0.178700 
      8 C          -0.115995   -0.347090   -0.281316 C.ar      1 <1>         0.342700 
      9 N           0.990506   -0.208149   -0.941185 N.ar      1 <1>        -0.516400 
     10 C           1.981366   -1.161182   -0.766402 C.ar      1 <1>         0.257700 
     11 C           3.206324   -0.925641   -1.635621 C.3       1 <1>        -0.433300 
     12 C           3.045483   -1.461901   -3.056328 C.ar      1 <1>         0.120200 
     13 C           3.425897   -2.764809   -3.320634 C.ar      1 <1>        -0.197800 
     14 C           3.292322   -3.335506   -4.606562 C.ar      1 <1>        -0.130100 
     15 C           2.779283   -2.589587   -5.640326 C.ar      1 <1>        -0.192500 
     16 C           2.385074   -1.242317   -5.429251 C.ar      1 <1>         0.139400 
     17 C           1.867688   -0.454356   -6.493438 C.ar      1 <1>        -0.195900 
     18 C           1.492519    0.853782   -6.292956 C.ar      1 <1>        -0.132200 
     19 C           1.621721    1.432980   -5.008704 C.ar      1 <1>        -0.154600 
     20 C           2.116900    0.695998   -3.955077 C.ar      1 <1>        -0.202300 
     21 C           2.513597   -0.660533   -4.120718 C.ar      1 <1>         0.075800 
     22 C           1.856435   -2.224475    0.096968 C.ar      1 <1>         0.039700 
     23 C           2.883265   -3.297507    0.345031 C.3       1 <1>        -0.526100 
     24 C           0.615350   -2.381644    0.847965 C.ar      1 <1>         0.576100 
     25 O           0.346833   -3.271941    1.645319 O.2       1 <1>        -0.521000 
     26 N          -0.337817   -1.373116    0.584729 N.ar      1 <1>        -0.654600 
     27 H           0.900180    5.717638   -0.553477 H         1 <1>         0.176900 
     28 H           1.807786    6.044673    0.935219 H         1 <1>         0.155900 
     29 H           0.099167    5.572061    1.031538 H         1 <1>         0.161100 
     30 H           1.615164    3.631852    1.598200 H         1 <1>         0.160900 
     31 H           2.369940    3.769681   -0.012879 H         1 <1>         0.174400 
     32 H          -1.596886    2.573231   -1.990543 H         1 <1>         0.210300 
     33 H          -0.414314    1.379303   -2.555052 H         1 <1>         0.242300 
     34 H           4.077315   -1.405792   -1.183777 H         1 <1>         0.160400 
     35 H           3.407134    0.148949   -1.648227 H         1 <1>         0.171200 
     36 H           3.844367   -3.368955   -2.519796 H         1 <1>         0.125200 
     37 H           3.602307   -4.364122   -4.770256 H         1 <1>         0.129000 
     38 H           2.673700   -3.017028   -6.634760 H         1 <1>         0.127800 
     39 H           1.776572   -0.910068   -7.476905 H         1 <1>         0.126900 
     40 H           1.100828    1.443699   -7.117563 H         1 <1>         0.127000 
     41 H           1.331596    2.465981   -4.838649 H         1 <1>         0.143400 
     42 H           2.189327    1.166320   -2.983427 H         1 <1>         0.162200 
     43 H           2.693337   -4.179420   -0.280982 H         1 <1>         0.173100 
     44 H           3.903315   -2.960126    0.146680 H         1 <1>         0.151500 
     45 H           2.817111   -3.632053    1.383892 H         1 <1>         0.185600 
     46 H          -1.213503   -1.464542    1.090051 H         1 <1>         0.353800 
@<TRIPOS>BOND
     1    6   32 1    
     2    6    7 1    
     3    7    8 1    
     4   26   46 1    
     5    6   33 1    
     6    4    6 1    
     7   17   39 1    
     8   18   40 1    
     9    8   26 ar   
    10   26   24 ar   
    11    8    9 ar   
    12   17   18 ar   
    13   16   17 ar   
    14   19   18 ar   
    15   15   38 1    
    16   24   25 2    
    17   24   22 ar   
    18   16   15 ar   
    19   14   15 ar   
    20   21   16 ar   
    21   19   41 1    
    22   20   19 ar   
    23    9   10 ar   
    24    3    4 1    
    25    4    5 2    
    26   14   37 1    
    27   13   14 ar   
    28   21   20 ar   
    29   20   42 1    
    30   12   21 ar   
    31    2    3 1    
    32   10   22 ar   
    33   22   23 1    
    34   10   11 1    
    35   23   43 1    
    36   12   13 ar   
    37   13   36 1    
    38   11   12 1    
    39    1   29 1    
    40    1   27 1    
    41   23   45 1    
    42   23   44 1    
    43   11   35 1    
    44   11   34 1    
    45    1    2 1    
    46    1   28 1    
    47    2   30 1    
    48    2   31 1    
@<TRIPOS>SUBSTRUCTURE
     1 ****       29 TEMP              0 ****  ****    0 ROOT 
