#	Name:			HYP-2004-BMCL-3173-4I
#	Creating user name:	Administrator
#	Creation time:		Sun Jul 05 16:55:26 2020

#	Modifying user name:	Administrator
#	Modification time:	Sun Jul 05 16:57:59 2020

@<TRIPOS>MOLECULE
HYP-2004-BMCL-3173-4I
   56    59     1     0     0
SMALL
MULLIKEN_CHARGES
INVALID_CHARGES
Gaussian 16 #p B3LYP/6-31G* opt
@<TRIPOS>ATOM
      1 C           3.675474   -3.033928    1.676189 C.3       1 <1>        -0.450800 
      2 C           2.931667   -3.244533    0.343446 C.3       1 <1>        -0.326300 
      3 C           1.859876   -2.210886    0.093975 C.ar      1 <1>         0.055300 
      4 C           1.948623   -1.148351   -0.775298 C.ar      1 <1>         0.186600 
      5 C           3.143368   -0.884092   -1.665171 C.3       1 <1>        -0.413400 
      6 C           4.220643    0.028580   -1.086941 C.ar      1 <1>         0.128000 
      7 C           4.092766    0.615826    0.155080 C.ar      1 <1>        -0.191100 
      8 C           5.096438    1.463270    0.684046 C.ar      1 <1>        -0.136400 
      9 C           6.235269    1.724619   -0.036608 C.ar      1 <1>        -0.190400 
     10 C           6.415969    1.151339   -1.323919 C.ar      1 <1>         0.137900 
     11 C           7.583807    1.411301   -2.089395 C.ar      1 <1>        -0.194200 
     12 C           7.753941    0.859107   -3.338553 C.ar      1 <1>        -0.133000 
     13 C           6.753318    0.018087   -3.877264 C.ar      1 <1>        -0.133700 
     14 C           5.609143   -0.255508   -3.159029 C.ar      1 <1>        -0.196700 
     15 C           5.398871    0.294394   -1.863993 C.ar      1 <1>         0.071700 
     16 N           0.949458   -0.202493   -0.917993 N.ar      1 <1>        -0.494000 
     17 C          -0.144487   -0.372066   -0.241405 C.ar      1 <1>         0.315000 
     18 S          -1.401762    0.868788   -0.532786 S.3       1 <1>         0.199100 
     19 C          -2.461514    0.791178    0.977447 C.3       1 <1>        -0.565700 
     20 C          -3.506605   -0.319549    0.912692 C.2       1 <1>         0.427200 
     21 O          -3.161110   -1.457217    1.234829 O.2       1 <1>        -0.477700 
     22 C          -4.885046   -0.038211    0.462649 C.ar      1 <1>         0.083600 
     23 C          -5.818628   -1.097712    0.483978 C.ar      1 <1>        -0.156700 
     24 C          -7.122614   -0.905898    0.073407 C.ar      1 <1>        -0.170800 
     25 C          -7.538987    0.359063   -0.384709 C.ar      1 <1>         0.392400 
     26 O          -8.834586    0.445234   -0.766957 O.3       1 <1>        -0.493900 
     27 C          -9.327149    1.690679   -1.249743 C.3       1 <1>        -0.224000 
     28 C          -6.624851    1.422347   -0.420757 C.ar      1 <1>        -0.199500 
     29 C          -5.314562    1.216284    0.004106 C.ar      1 <1>        -0.184600 
     30 N          -0.358924   -1.409587    0.605291 N.ar      1 <1>        -0.664500 
     31 C           0.628421   -2.392560    0.856994 C.ar      1 <1>         0.571800 
     32 O           0.390449   -3.300375    1.645495 O.2       1 <1>        -0.523300 
     33 H           4.198068   -2.071589    1.688789 H         1 <1>         0.148600 
     34 H           2.971449   -3.063319    2.512890 H         1 <1>         0.170600 
     35 H           4.417559   -3.826115    1.827933 H         1 <1>         0.141300 
     36 H           3.654498   -3.256427   -0.477821 H         1 <1>         0.138100 
     37 H           2.449950   -4.228965    0.367926 H         1 <1>         0.165200 
     38 H           2.753191   -0.427774   -2.583528 H         1 <1>         0.179300 
     39 H           3.600904   -1.834682   -1.959661 H         1 <1>         0.164700 
     40 H           3.201831    0.430311    0.745645 H         1 <1>         0.133700 
     41 H           4.955125    1.903909    1.667348 H         1 <1>         0.128300 
     42 H           7.011562    2.372588    0.363408 H         1 <1>         0.126300 
     43 H           8.346353    2.061332   -1.666260 H         1 <1>         0.128200 
     44 H           8.652841    1.067729   -3.912429 H         1 <1>         0.128200 
     45 H           6.887803   -0.414764   -4.865012 H         1 <1>         0.127900 
     46 H           4.854009   -0.900363   -3.596133 H         1 <1>         0.132100 
     47 H          -2.893440    1.789157    1.065925 H         1 <1>         0.200700 
     48 H          -1.825806    0.621396    1.850016 H         1 <1>         0.218200 
     49 H          -5.485882   -2.069380    0.832631 H         1 <1>         0.176400 
     50 H          -7.847384   -1.713463    0.089960 H         1 <1>         0.155200 
     51 H          -9.254906    2.472428   -0.483536 H         1 <1>         0.161100 
     52 H          -8.789547    2.009936   -2.150950 H         1 <1>         0.162700 
     53 H         -10.376074    1.518523   -1.494579 H         1 <1>         0.181900 
     54 H          -6.921512    2.402189   -0.775160 H         1 <1>         0.144600 
     55 H          -4.627793    2.054961   -0.044047 H         1 <1>         0.142600 
     56 H          -1.279294   -1.575303    1.031113 H         1 <1>         0.396000 
@<TRIPOS>BOND
     1   13   45 1    
     2   14   46 1    
     3   14   13 ar   
     4   13   12 ar   
     5    5   39 1    
     6   15   14 ar   
     7    5   38 1    
     8    2   37 1    
     9    2   36 1    
    10   24   50 1    
    11   12   44 1    
    12    4    5 1    
    13    5    6 1    
    14   11   12 ar   
    15   27   52 1    
    16    3    2 1    
    17    2    1 1    
    18   27   53 1    
    19   26   27 1    
    20   25   26 1    
    21   23   24 ar   
    22   24   25 ar   
    23    4    3 ar   
    24   16    4 ar   
    25   23   49 1    
    26   31    3 ar   
    27   27   51 1    
    28   22   23 ar   
    29   28   25 ar   
    30    6   15 ar   
    31   15   10 ar   
    32   17   16 ar   
    33   31   32 2    
    34   30   31 ar   
    35    6    7 ar   
    36   17   30 ar   
    37   18   17 1    
    38   30   56 1    
    39    1   35 1    
    40   20   21 2    
    41   28   54 1    
    42   29   28 ar   
    43   20   22 1    
    44   22   29 ar   
    45   10   11 ar   
    46   11   43 1    
    47    1   34 1    
    48    1   33 1    
    49   19   18 1    
    50   20   19 1    
    51   29   55 1    
    52   10    9 ar   
    53    7   40 1    
    54    7    8 ar   
    55   19   47 1    
    56   19   48 1    
    57    9    8 ar   
    58    9   42 1    
    59    8   41 1    
@<TRIPOS>SUBSTRUCTURE
     1 ****       50 TEMP              0 ****  ****    0 ROOT 
