#	Name:			HYP-2004-BMCL-3173-4B
#	Creating user name:	Administrator
#	Creation time:		Sun Jul 05 16:55:26 2020

#	Modifying user name:	Administrator
#	Modification time:	Sun Jul 05 16:57:59 2020

@<TRIPOS>MOLECULE
HYP-2004-BMCL-3173-4B
   53    56     1     0     0
SMALL
MULLIKEN_CHARGES
INVALID_CHARGES
Gaussian 16 #p B3LYP/6-31G* opt
@<TRIPOS>ATOM
      1 C           2.842736    7.551757   -4.572492 C.3       1 <1>        -0.221100 
      2 O           2.941973    7.296758   -3.177081 O.3       1 <1>        -0.498200 
      3 C           2.260993    6.244254   -2.657371 C.ar      1 <1>         0.388800 
      4 C           1.450430    5.374619   -3.400122 C.ar      1 <1>        -0.198200 
      5 C           0.797595    4.324853   -2.755280 C.ar      1 <1>        -0.192300 
      6 C           0.935206    4.118390   -1.376044 C.ar      1 <1>         0.082900 
      7 C           0.262438    3.015516   -0.635360 C.2       1 <1>         0.427300 
      8 O           0.429587    2.854488    0.560873 O.2       1 <1>        -0.447900 
      9 C          -0.657077    2.086725   -1.447709 C.3       1 <1>        -0.541800 
     10 S          -1.470271    0.792501   -0.462702 S.3       1 <1>         0.177000 
     11 C          -0.111556   -0.339920   -0.275190 C.ar      1 <1>         0.349900 
     12 N           0.989810   -0.207680   -0.947682 N.ar      1 <1>        -0.509300 
     13 C           1.980582   -1.151707   -0.752013 C.ar      1 <1>         0.212700 
     14 C           3.241055   -0.884583   -1.542154 C.3       1 <1>        -0.412600 
     15 C           3.279803   -1.470481   -2.950801 C.ar      1 <1>         0.124300 
     16 C           2.257376   -2.254541   -3.444439 C.ar      1 <1>        -0.196800 
     17 C           2.301818   -2.797967   -4.751410 C.ar      1 <1>        -0.136000 
     18 C           3.377683   -2.553865   -5.568383 C.ar      1 <1>        -0.190800 
     19 C           4.458608   -1.753047   -5.110759 C.ar      1 <1>         0.136900 
     20 C           5.582497   -1.488607   -5.937921 C.ar      1 <1>        -0.194600 
     21 C           6.628510   -0.713515   -5.491141 C.ar      1 <1>        -0.133300 
     22 C           6.591469   -0.166436   -4.188092 C.ar      1 <1>        -0.134000 
     23 C           5.515070   -0.403978   -3.360526 C.ar      1 <1>        -0.197200 
     24 C           4.416048   -1.200300   -3.786798 C.ar      1 <1>         0.071700 
     25 C           1.848594   -2.234352    0.083166 C.ar      1 <1>         0.056700 
     26 C           2.909912   -3.283422    0.289733 C.3       1 <1>        -0.538400 
     27 C           0.616546   -2.387699    0.846843 C.ar      1 <1>         0.572800 
     28 O           0.344280   -3.275296    1.645762 O.2       1 <1>        -0.523800 
     29 N          -0.326330   -1.363378    0.596091 N.ar      1 <1>        -0.652400 
     30 C           1.755707    5.002666   -0.646893 C.ar      1 <1>        -0.161400 
     31 C           2.408140    6.048848   -1.271721 C.ar      1 <1>        -0.173100 
     32 H           3.220397    6.706781   -5.162062 H         1 <1>         0.159800 
     33 H           3.463626    8.429370   -4.758617 H         1 <1>         0.177800 
     34 H           1.808293    7.768399   -4.867711 H         1 <1>         0.158200 
     35 H           1.324893    5.503602   -4.468700 H         1 <1>         0.139900 
     36 H           0.180238    3.662307   -3.354039 H         1 <1>         0.137000 
     37 H          -1.468457    2.657933   -1.911206 H         1 <1>         0.197900 
     38 H          -0.083434    1.596354   -2.238739 H         1 <1>         0.231400 
     39 H           4.107877   -1.249959   -0.978313 H         1 <1>         0.167100 
     40 H           3.347027    0.204961   -1.607529 H         1 <1>         0.178400 
     41 H           1.394252   -2.464481   -2.820958 H         1 <1>         0.133600 
     42 H           1.475034   -3.411109   -5.099910 H         1 <1>         0.130600 
     43 H           3.419884   -2.968446   -6.572818 H         1 <1>         0.127800 
     44 H           5.601148   -1.914801   -6.938415 H         1 <1>         0.129300 
     45 H           7.482210   -0.520972   -6.135244 H         1 <1>         0.129300 
     46 H           7.418263    0.445187   -3.836919 H         1 <1>         0.129400 
     47 H           5.509697    0.027207   -2.364953 H         1 <1>         0.134000 
     48 H           3.695935   -2.934922    0.973456 H         1 <1>         0.164700 
     49 H           3.388396   -3.568824   -0.652148 H         1 <1>         0.163600 
     50 H           2.459059   -4.170374    0.740616 H         1 <1>         0.190700 
     51 H          -1.179777   -1.420779    1.142639 H         1 <1>         0.354100 
     52 H           1.862419    4.840713    0.420567 H         1 <1>         0.168600 
     53 H           3.041116    6.734759   -0.717756 H         1 <1>         0.149100 
@<TRIPOS>BOND
     1   17   42 1    
     2   18   43 1    
     3    9   37 1    
     4   17   18 ar   
     5   16   17 ar   
     6   19   18 ar   
     7    5   36 1    
     8    4   35 1    
     9    9   38 1    
    10   16   41 1    
    11   10    9 1    
    12   11   10 1    
    13    9    7 1    
    14    1   34 1    
    15   20   44 1    
    16   15   16 ar   
    17    5    4 ar   
    18    6    5 ar   
    19    4    3 ar   
    20   19   20 ar   
    21   24   19 ar   
    22    1   32 1    
    23   20   21 ar   
    24    1   33 1    
    25    2    1 1    
    26   12   11 ar   
    27   11   29 ar   
    28   29   51 1    
    29   13   12 ar   
    30   29   27 ar   
    31   15   24 ar   
    32   14   15 1    
    33    7    6 1    
    34    7    8 2    
    35    6   30 ar   
    36   24   23 ar   
    37    3    2 1    
    38    3   31 ar   
    39   13   25 ar   
    40   13   14 1    
    41   21   45 1    
    42   21   22 ar   
    43   27   28 2    
    44   27   25 ar   
    45   25   26 1    
    46   14   40 1    
    47   14   39 1    
    48   30   31 ar   
    49   30   52 1    
    50   23   22 ar   
    51   23   47 1    
    52   31   53 1    
    53   26   49 1    
    54   22   46 1    
    55   26   50 1    
    56   26   48 1    
@<TRIPOS>SUBSTRUCTURE
     1 ****       37 TEMP              0 ****  ****    0 ROOT 
