#	Name:			LJ-2007-JMC-1778-4G
#	Creating user name:	Administrator
#	Creation time:		Sun Jul 05 16:55:56 2020

#	Modifying user name:	Administrator
#	Modification time:	Sun Jul 05 16:57:59 2020

@<TRIPOS>MOLECULE
LJ-2007-JMC-1778-4G
   42    44     1     0     0
SMALL
MULLIKEN_CHARGES
INVALID_CHARGES
Gaussian 16 #p B3LYP/6-31G* opt
@<TRIPOS>ATOM
      1 C          -1.784836    3.066509   -1.984633 C.3       1 <1>        -0.467100 
      2 C          -0.766190    1.963569   -1.704168 C.3       1 <1>        -0.390900 
      3 S          -1.463088    0.803874   -0.453203 S.3       1 <1>         0.144400 
      4 C          -0.120611   -0.344358   -0.287202 C.ar      1 <1>         0.326200 
      5 N           0.992993   -0.198599   -0.939740 N.ar      1 <1>        -0.502800 
      6 C           1.969493   -1.158203   -0.751997 C.ar      1 <1>         0.114300 
      7 C           3.180861   -0.944520   -1.653520 C.2       1 <1>         0.368500 
      8 O           3.480030   -1.835276   -2.438132 O.2       1 <1>        -0.460200 
      9 C           3.920984    0.346013   -1.540925 C.ar      1 <1>         0.058500 
     10 C           3.804579    1.058402   -0.354589 C.ar      1 <1>        -0.184900 
     11 C           4.522621    2.249083   -0.126902 C.ar      1 <1>        -0.139200 
     12 C           5.349621    2.742984   -1.108216 C.ar      1 <1>        -0.177400 
     13 C           5.496991    2.067611   -2.348391 C.ar      1 <1>         0.132900 
     14 C           6.343937    2.595782   -3.359246 C.ar      1 <1>        -0.197000 
     15 C           6.491322    1.951128   -4.564856 C.ar      1 <1>        -0.127600 
     16 C           5.790918    0.747135   -4.802746 C.ar      1 <1>        -0.137900 
     17 C           4.964123    0.202481   -3.842929 C.ar      1 <1>        -0.183500 
     18 C           4.786860    0.840303   -2.583636 C.ar      1 <1>         0.068300 
     19 C           1.857229   -2.238738    0.086797 C.ar      1 <1>         0.063400 
     20 C           2.919323   -3.281372    0.334211 C.3       1 <1>        -0.337000 
     21 C           3.669334   -3.061639    1.661878 C.3       1 <1>        -0.449300 
     22 C           0.618298   -2.384750    0.849088 C.ar      1 <1>         0.583600 
     23 O           0.352903   -3.267743    1.654664 O.2       1 <1>        -0.519600 
     24 N          -0.335561   -1.379014    0.575866 N.ar      1 <1>        -0.650400 
     25 H          -2.015450    3.643792   -1.083176 H         1 <1>         0.167900 
     26 H          -2.721147    2.661719   -2.382717 H         1 <1>         0.169000 
     27 H          -1.372692    3.755595   -2.729677 H         1 <1>         0.167600 
     28 H           0.169520    2.361716   -1.307042 H         1 <1>         0.201500 
     29 H          -0.532451    1.386265   -2.601124 H         1 <1>         0.201300 
     30 H           3.154400    0.683437    0.428379 H         1 <1>         0.149500 
     31 H           4.416834    2.768808    0.820939 H         1 <1>         0.138300 
     32 H           5.906359    3.663471   -0.948325 H         1 <1>         0.138400 
     33 H           6.872462    3.524933   -3.159579 H         1 <1>         0.132100 
     34 H           7.140842    2.363168   -5.332362 H         1 <1>         0.133600 
     35 H           5.906985    0.239208   -5.756536 H         1 <1>         0.135800 
     36 H           4.448913   -0.727952   -4.034309 H         1 <1>         0.179600 
     37 H           3.622346   -3.300708   -0.500297 H         1 <1>         0.172000 
     38 H           2.425799   -4.259274    0.369581 H         1 <1>         0.167300 
     39 H           4.200261   -2.102375    1.662811 H         1 <1>         0.137600 
     40 H           2.973976   -3.075059    2.506437 H         1 <1>         0.170100 
     41 H           4.408330   -3.855749    1.816725 H         1 <1>         0.148400 
     42 H          -1.212474   -1.471501    1.079332 H         1 <1>         0.354800 
@<TRIPOS>BOND
     1   11   31 1    
     2   12   32 1    
     3   11   12 ar   
     4   10   11 ar   
     5   13   12 ar   
     6   10   30 1    
     7   21   39 1    
     8   21   40 1    
     9    9   10 ar   
    10   14   33 1    
    11   21   41 1    
    12   20   21 1    
    13   13   14 ar   
    14   18   13 ar   
    15    1   25 1    
    16   14   15 ar   
    17    2   28 1    
    18    9   18 ar   
    19    7    9 1    
    20   24   42 1    
    21   22   23 2    
    22   22   24 ar   
    23    4   24 ar   
    24    4    3 1    
    25    3    2 1    
    26   19   22 ar   
    27    5    4 ar   
    28   18   17 ar   
    29    2    1 1    
    30    1   27 1    
    31    1   26 1    
    32   19   20 1    
    33    6   19 ar   
    34    2   29 1    
    35    6    5 ar   
    36   20   37 1    
    37   20   38 1    
    38    6    7 1    
    39    7    8 2    
    40   15   34 1    
    41   15   16 ar   
    42   17   16 ar   
    43   17   36 1    
    44   16   35 1    
@<TRIPOS>SUBSTRUCTURE
     1 ****       25 TEMP              0 ****  ****    0 ROOT 
