#	Name:			LJ-2007-JMC-1778-3O
#	Creating user name:	Administrator
#	Creation time:		Sun Jul 05 16:55:55 2020

#	Modifying user name:	Administrator
#	Modification time:	Sun Jul 05 16:57:59 2020

@<TRIPOS>MOLECULE
LJ-2007-JMC-1778-3O
   53    56     1     0     0
SMALL
MULLIKEN_CHARGES
INVALID_CHARGES
Gaussian 16 #p B3LYP/6-31G* opt
@<TRIPOS>ATOM
      1 C           3.704470   -2.960263    1.683543 C.3       1 <1>        -0.450500 
      2 C           2.946394   -3.233249    0.369592 C.3       1 <1>        -0.334400 
      3 C           1.867083   -2.214049    0.096794 C.ar      1 <1>         0.061600 
      4 C           1.941659   -1.147878   -0.769007 C.ar      1 <1>         0.209500 
      5 C           3.172062   -0.896530   -1.642475 C.3       1 <1>        -0.330700 
      6 C           2.787419   -0.329739   -2.949134 C.1       1 <1>         0.388800 
      7 N           2.541657    0.093971   -4.001226 N.1       1 <1>        -0.470800 
      8 C           4.255295   -0.028550   -0.974088 C.ar      1 <1>         0.103500 
      9 C           3.908838    0.906038   -0.020032 C.ar      1 <1>        -0.179500 
     10 C           4.889042    1.697641    0.622373 C.ar      1 <1>        -0.136400 
     11 C           6.216282    1.546114    0.303650 C.ar      1 <1>        -0.182800 
     12 C           6.619947    0.611282   -0.686108 C.ar      1 <1>         0.136300 
     13 C           7.988581    0.456579   -1.033224 C.ar      1 <1>        -0.193000 
     14 C           8.378898   -0.433337   -2.006681 C.ar      1 <1>        -0.130200 
     15 C           7.406336   -1.205371   -2.682328 C.ar      1 <1>        -0.133300 
     16 C           6.070799   -1.085037   -2.365886 C.ar      1 <1>        -0.196000 
     17 C           5.629357   -0.186453   -1.354338 C.ar      1 <1>         0.092100 
     18 N           0.949379   -0.206514   -0.918748 N.ar      1 <1>        -0.493900 
     19 C          -0.152502   -0.367564   -0.251012 C.ar      1 <1>         0.321600 
     20 S          -1.400799    0.871882   -0.521466 S.3       1 <1>         0.223800 
     21 C          -2.586844    0.635276    0.873452 C.3       1 <1>        -0.557700 
     22 C          -3.495537   -0.575474    0.811919 C.ar      1 <1>         0.161400 
     23 C          -3.650761   -1.385190    1.947117 C.ar      1 <1>        -0.210700 
     24 C          -4.510722   -2.483081    1.933215 C.ar      1 <1>        -0.135400 
     25 C          -5.216356   -2.758580    0.767280 C.ar      1 <1>         0.274800 
     26 N          -6.132382   -3.912790    0.742330 N.pl3     1 <1>         0.384100 
     27 O          -6.235568   -4.579285    1.770617 O.2       1 <1>        -0.387600 
     28 O          -6.738174   -4.134519   -0.304635 O.2       1 <1>        -0.387700 
     29 C          -5.083292   -1.975227   -0.379053 C.ar      1 <1>        -0.146000 
     30 C          -4.218519   -0.887441   -0.350595 C.ar      1 <1>        -0.173300 
     31 N          -0.353470   -1.414553    0.591417 N.ar      1 <1>        -0.650300 
     32 C           0.634475   -2.395257    0.856088 C.ar      1 <1>         0.579800 
     33 O           0.385830   -3.293599    1.650206 O.2       1 <1>        -0.519400 
     34 H           3.013146   -2.973071    2.531288 H         1 <1>         0.170400 
     35 H           4.206977   -1.987865    1.655674 H         1 <1>         0.154800 
     36 H           4.462590   -3.733124    1.851627 H         1 <1>         0.150000 
     37 H           2.469256   -4.217040    0.438662 H         1 <1>         0.174300 
     38 H           3.660803   -3.279692   -0.458215 H         1 <1>         0.143500 
     39 H           3.614872   -1.872915   -1.858426 H         1 <1>         0.197200 
     40 H           2.865104    1.044514    0.240149 H         1 <1>         0.150800 
     41 H           4.581254    2.422139    1.370907 H         1 <1>         0.136000 
     42 H           6.977351    2.144612    0.798264 H         1 <1>         0.135300 
     43 H           8.725869    1.064131   -0.513800 H         1 <1>         0.134900 
     44 H           9.428886   -0.539506   -2.264201 H         1 <1>         0.135900 
     45 H           7.713653   -1.895258   -3.463357 H         1 <1>         0.137500 
     46 H           5.349926   -1.671675   -2.925328 H         1 <1>         0.140900 
     47 H          -3.181193    1.555093    0.822468 H         1 <1>         0.221200 
     48 H          -2.039578    0.669063    1.820314 H         1 <1>         0.200300 
     49 H          -3.103352   -1.153243    2.857548 H         1 <1>         0.158600 
     50 H          -4.637133   -3.118004    2.801287 H         1 <1>         0.196100 
     51 H          -5.650142   -2.227479   -1.266689 H         1 <1>         0.194300 
     52 H          -4.094684   -0.278367   -1.241017 H         1 <1>         0.170500 
     53 H          -1.248353   -1.586415    1.038630 H         1 <1>         0.359700 
@<TRIPOS>BOND
     1   10   41 1    
     2   11   42 1    
     3   23   49 1    
     4   21   48 1    
     5   10   11 ar   
     6    9   10 ar   
     7    1   34 1    
     8   12   11 ar   
     9    1   35 1    
    10   21   47 1    
    11   24   50 1    
    12   23   24 ar   
    13   22   23 ar   
    14    9   40 1    
    15   21   22 1    
    16   20   21 1    
    17    1   36 1    
    18    2    1 1    
    19   13   43 1    
    20    8    9 ar   
    21   24   25 ar   
    22   32   33 2    
    23   31   53 1    
    24   22   30 ar   
    25   12   13 ar   
    26   17   12 ar   
    27   32   31 ar   
    28   19   31 ar   
    29    3   32 ar   
    30   13   14 ar   
    31   19   20 1    
    32   18   19 ar   
    33    8   17 ar   
    34    5    8 1    
    35    3    2 1    
    36    4    3 ar   
    37   26   27 2    
    38    2   37 1    
    39    2   38 1    
    40   25   26 1    
    41   25   29 ar   
    42    4   18 ar   
    43   17   16 ar   
    44    4    5 1    
    45   30   29 ar   
    46   30   52 1    
    47   14   44 1    
    48   14   15 ar   
    49   26   28 2    
    50   29   51 1    
    51    5   39 1    
    52    5    6 1    
    53   16   15 ar   
    54   16   46 1    
    55   15   45 1    
    56    6    7 3    
@<TRIPOS>SUBSTRUCTURE
     1 ****       48 TEMP              0 ****  ****    0 ROOT 
