#	Name:			LJ-2007-JMC-1778-4F
#	Creating user name:	Administrator
#	Creation time:		Sun Jul 05 16:55:56 2020

#	Modifying user name:	Administrator
#	Modification time:	Sun Jul 05 16:57:59 2020

@<TRIPOS>MOLECULE
LJ-2007-JMC-1778-4F
   34    35     1     0     0
SMALL
MULLIKEN_CHARGES
INVALID_CHARGES
Gaussian 16 #p B3LYP/6-31G* opt
@<TRIPOS>ATOM
      1 C          -2.075936    0.321830   -3.542680 C.2       1 <1>        -0.328400 
      2 C          -1.326807    1.375358   -3.222889 C.2       1 <1>        -0.048000 
      3 C          -0.894403    1.827069   -1.851998 C.3       1 <1>        -0.480300 
      4 S          -1.464350    0.813334   -0.432725 S.3       1 <1>         0.151200 
      5 C          -0.120652   -0.349704   -0.296560 C.ar      1 <1>         0.334800 
      6 N           0.984167   -0.219357   -0.960338 N.ar      1 <1>        -0.511100 
      7 C           1.977811   -1.158263   -0.752461 C.ar      1 <1>         0.153900 
      8 C           3.264894   -0.880922   -1.504533 C.2       1 <1>         0.357000 
      9 O           4.330399   -1.008159   -0.915057 O.2       1 <1>        -0.460100 
     10 C           3.228245   -0.457882   -2.938668 C.ar      1 <1>         0.079400 
     11 C           2.085636   -0.556246   -3.748591 C.ar      1 <1>        -0.157300 
     12 C           2.148587   -0.198995   -5.095114 C.ar      1 <1>        -0.143800 
     13 C           3.345085    0.265653   -5.644163 C.ar      1 <1>        -0.117700 
     14 C           4.487603    0.366432   -4.844302 C.ar      1 <1>        -0.135100 
     15 C           4.430768    0.000441   -3.503609 C.ar      1 <1>        -0.154400 
     16 C           1.868741   -2.223783    0.108883 C.ar      1 <1>         0.056300 
     17 C           2.913306   -3.269520    0.377383 C.3       1 <1>        -0.503700 
     18 C           0.616132   -2.381991    0.849666 C.ar      1 <1>         0.581200 
     19 O           0.346098   -3.271922    1.643798 O.2       1 <1>        -0.510500 
     20 N          -0.336292   -1.375845    0.574010 N.ar      1 <1>        -0.650400 
     21 H          -2.475200   -0.352806   -2.790850 H         1 <1>         0.163200 
     22 H          -2.320260    0.104442   -4.578244 H         1 <1>         0.145700 
     23 H          -0.953738    2.024808   -4.016581 H         1 <1>         0.145400 
     24 H           0.198021    1.857202   -1.785507 H         1 <1>         0.232300 
     25 H          -1.267591    2.836575   -1.643129 H         1 <1>         0.192000 
     26 H           1.147621   -0.901064   -3.331094 H         1 <1>         0.154000 
     27 H           1.259945   -0.282890   -5.714683 H         1 <1>         0.135000 
     28 H           3.388906    0.547543   -6.693024 H         1 <1>         0.137000 
     29 H           5.420734    0.725831   -5.269325 H         1 <1>         0.138400 
     30 H           5.308819    0.057532   -2.868943 H         1 <1>         0.163600 
     31 H           3.430008   -3.058055    1.321850 H         1 <1>         0.180900 
     32 H           2.430821   -4.244661    0.491630 H         1 <1>         0.173600 
     33 H           3.669795   -3.312627   -0.405692 H         1 <1>         0.169600 
     34 H          -1.217109   -1.470042    1.070565 H         1 <1>         0.356400 
@<TRIPOS>BOND
     1    3   25 1    
     2    3   24 1    
     3   15   30 1    
     4    8    9 2    
     5    4    3 1    
     6    3    2 1    
     7    5    4 1    
     8   14   29 1    
     9   15   14 ar   
    10   10   15 ar   
    11    7    8 1    
    12    8   10 1    
    13    6    5 ar   
    14    7    6 ar   
    15   20    5 ar   
    16   14   13 ar   
    17   16    7 ar   
    18   17   31 1    
    19    2   23 1    
    20   10   11 ar   
    21    2    1 2    
    22   20   34 1    
    23   18   20 ar   
    24   16   18 ar   
    25   16   17 1    
    26   18   19 2    
    27   13   28 1    
    28   13   12 ar   
    29   17   33 1    
    30   17   32 1    
    31   11   12 ar   
    32   11   26 1    
    33   12   27 1    
    34    1   21 1    
    35    1   22 1    
@<TRIPOS>SUBSTRUCTURE
     1 ****       25 TEMP              0 ****  ****    0 ROOT 
