#	Name:			LJ-2007-JMC-1778-3E
#	Creating user name:	Administrator
#	Creation time:		Sun Jul 05 16:55:55 2020

#	Modifying user name:	Administrator
#	Modification time:	Sun Jul 05 16:57:59 2020

@<TRIPOS>MOLECULE
LJ-2007-JMC-1778-3E
   50    53     1     0     0
SMALL
MULLIKEN_CHARGES
INVALID_CHARGES
Gaussian 16 #p B3LYP/6-31G* opt
@<TRIPOS>ATOM
      1 C           2.865391   -3.347296    0.300701 C.3       1 <1>        -0.555200 
      2 C           1.863987   -2.239363    0.078519 C.ar      1 <1>         0.038800 
      3 C           1.980534   -1.155488   -0.756639 C.ar      1 <1>         0.247300 
      4 C           3.144675   -0.793899   -1.698386 C.3       1 <1>        -0.326100 
      5 C           4.245222   -1.762280   -1.818954 C.1       1 <1>         0.378200 
      6 N           5.135810   -2.486384   -1.992124 N.1       1 <1>        -0.492400 
      7 C           3.677214    0.633665   -1.480201 C.ar      1 <1>         0.123400 
      8 C           3.377892    1.580812   -2.439313 C.ar      1 <1>        -0.203100 
      9 C           3.830241    2.915247   -2.322223 C.ar      1 <1>        -0.141000 
     10 C           4.583841    3.294270   -1.237931 C.ar      1 <1>        -0.185200 
     11 C           4.908690    2.358281   -0.220787 C.ar      1 <1>         0.139400 
     12 C           5.677642    2.742704    0.910129 C.ar      1 <1>        -0.195200 
     13 C           5.985833    1.839253    1.900385 C.ar      1 <1>        -0.130800 
     14 C           5.533103    0.503569    1.797908 C.ar      1 <1>        -0.143300 
     15 C           4.788118    0.097448    0.713186 C.ar      1 <1>        -0.178400 
     16 C           4.450556    1.000680   -0.331664 C.ar      1 <1>         0.092300 
     17 N           0.985357   -0.213611   -0.928895 N.ar      1 <1>        -0.495000 
     18 C          -0.118091   -0.346878   -0.275653 C.ar      1 <1>         0.335000 
     19 S          -1.468635    0.802383   -0.467763 S.3       1 <1>         0.163700 
     20 C          -0.780926    1.908243   -1.770090 C.3       1 <1>        -0.543900 
     21 C          -0.965033    1.385832   -3.199855 C.2       1 <1>         0.426600 
     22 O           0.021594    1.065211   -3.844321 O.2       1 <1>        -0.444100 
     23 C          -2.334623    1.303623   -3.794164 C.ar      1 <1>         0.084300 
     24 C          -3.481660    1.805038   -3.158793 C.ar      1 <1>        -0.172400 
     25 C          -4.726501    1.720430   -3.780760 C.ar      1 <1>        -0.134500 
     26 C          -4.839527    1.130698   -5.041012 C.ar      1 <1>        -0.117500 
     27 C          -3.703032    0.628638   -5.682348 C.ar      1 <1>        -0.130400 
     28 C          -2.460089    0.717537   -5.064884 C.ar      1 <1>        -0.154700 
     29 N          -0.335289   -1.367407    0.597131 N.ar      1 <1>        -0.653600 
     30 C           0.617475   -2.379606    0.845444 C.ar      1 <1>         0.579500 
     31 O           0.346316   -3.267559    1.642129 O.2       1 <1>        -0.515500 
     32 H           2.470559   -4.015322    1.068273 H         1 <1>         0.196600 
     33 H           3.040033   -3.929968   -0.608709 H         1 <1>         0.184800 
     34 H           3.839575   -2.978656    0.633982 H         1 <1>         0.184400 
     35 H           2.671856   -0.778157   -2.689525 H         1 <1>         0.227800 
     36 H           2.758681    1.305870   -3.288320 H         1 <1>         0.164400 
     37 H           3.578718    3.632964   -3.098008 H         1 <1>         0.135100 
     38 H           4.941259    4.316640   -1.140265 H         1 <1>         0.132400 
     39 H           6.019200    3.772927    0.977706 H         1 <1>         0.131600 
     40 H           6.575121    2.146732    2.759896 H         1 <1>         0.133400 
     41 H           5.776595   -0.209514    2.580580 H         1 <1>         0.135200 
     42 H           4.455871   -0.931770    0.659560 H         1 <1>         0.139100 
     43 H           0.287221    2.017320   -1.581581 H         1 <1>         0.248600 
     44 H          -1.285923    2.866948   -1.620073 H         1 <1>         0.201500 
     45 H          -3.415770    2.267475   -2.179014 H         1 <1>         0.134800 
     46 H          -5.607244    2.113720   -3.281096 H         1 <1>         0.142300 
     47 H          -5.810985    1.063097   -5.523216 H         1 <1>         0.144000 
     48 H          -3.789287    0.170065   -6.663454 H         1 <1>         0.144500 
     49 H          -1.564870    0.339740   -5.547564 H         1 <1>         0.167200 
     50 H          -1.208847   -1.464727    1.104755 H         1 <1>         0.356100 
@<TRIPOS>BOND
     1   13   40 1    
     2   24   45 1    
     3   20   44 1    
     4   19   20 1    
     5   18   19 1    
     6   12   39 1    
     7   29   50 1    
     8   25   46 1    
     9   12   13 ar   
    10   14   13 ar   
    11   11   12 ar   
    12   18   29 ar   
    13   30   29 ar   
    14   14   41 1    
    15   20   43 1    
    16   20   21 1    
    17   15   14 ar   
    18   24   25 ar   
    19   23   24 ar   
    20   17   18 ar   
    21   25   26 ar   
    22   10   38 1    
    23   30   31 2    
    24   11   10 ar   
    25   16   11 ar   
    26    2   30 ar   
    27    9   10 ar   
    28   16   15 ar   
    29   15   42 1    
    30    3   17 ar   
    31    7   16 ar   
    32   21   23 1    
    33   21   22 2    
    34   23   28 ar   
    35   26   47 1    
    36   26   27 ar   
    37    9   37 1    
    38    8    9 ar   
    39    3    2 ar   
    40    2    1 1    
    41    4    3 1    
    42    1   32 1    
    43    7    8 ar   
    44    7    4 1    
    45    8   36 1    
    46    1   34 1    
    47    1   33 1    
    48   28   27 ar   
    49   28   49 1    
    50   27   48 1    
    51    4   35 1    
    52    4    5 1    
    53    5    6 3    
@<TRIPOS>SUBSTRUCTURE
     1 ****       40 TEMP              0 ****  ****    0 ROOT 
