#	Name:			LJ-2007-JMC-1778-4A
#	Creating user name:	Administrator
#	Creation time:		Sun Jul 05 16:55:56 2020

#	Modifying user name:	Administrator
#	Modification time:	Sun Jul 05 16:57:59 2020

@<TRIPOS>MOLECULE
LJ-2007-JMC-1778-4A
   36    38     1     0     0
SMALL
MULLIKEN_CHARGES
INVALID_CHARGES
Gaussian 16 #p B3LYP/6-31G* opt
@<TRIPOS>ATOM
      1 C          -2.403763    0.888620    2.127815 C.3       1 <1>        -0.444100 
      2 C          -2.721521    0.470588    0.691169 C.3       1 <1>        -0.462600 
      3 S          -1.408231    0.852152   -0.541750 S.3       1 <1>         0.209600 
      4 C          -0.142142   -0.357694   -0.244592 C.ar      1 <1>         0.332400 
      5 N           0.957746   -0.192151   -0.924979 N.ar      1 <1>        -0.513800 
      6 C           1.941683   -1.137241   -0.759470 C.ar      1 <1>         0.213700 
      7 C           3.205136   -1.010988   -1.603859 C.2       1 <1>         0.342800 
      8 O           3.847540   -2.033465   -1.809594 O.2       1 <1>        -0.457500 
      9 C           3.625380    0.319111   -2.132359 C.ar      1 <1>         0.050100 
     10 C           3.377335    1.450876   -1.368603 C.ar      1 <1>        -0.155600 
     11 C           3.848339    2.722022   -1.754807 C.ar      1 <1>        -0.141800 
     12 C           4.546367    2.864420   -2.930618 C.ar      1 <1>        -0.175700 
     13 C           4.811414    1.745073   -3.762700 C.ar      1 <1>         0.127900 
     14 C           5.518074    1.904401   -4.984885 C.ar      1 <1>        -0.195600 
     15 C           5.776016    0.825821   -5.797623 C.ar      1 <1>        -0.128700 
     16 C           5.331838   -0.460029   -5.413750 C.ar      1 <1>        -0.137600 
     17 C           4.649185   -0.652152   -4.231828 C.ar      1 <1>        -0.181300 
     18 C           4.364673    0.439077   -3.364885 C.ar      1 <1>         0.084200 
     19 C           1.835556   -2.215651    0.077306 C.ar      1 <1>        -0.236100 
     20 C           0.637798   -2.414547    0.859904 C.ar      1 <1>         0.612100 
     21 O           0.381577   -3.306157    1.653856 O.2       1 <1>        -0.514900 
     22 N          -0.332333   -1.396242    0.613997 N.ar      1 <1>        -0.641900 
     23 H          -2.189793    1.960060    2.179970 H         1 <1>         0.177000 
     24 H          -3.262559    0.676826    2.775625 H         1 <1>         0.166800 
     25 H          -1.537425    0.355988    2.533145 H         1 <1>         0.164900 
     26 H          -3.004497   -0.585672    0.613451 H         1 <1>         0.182400 
     27 H          -3.577385    1.036654    0.309119 H         1 <1>         0.201400 
     28 H           2.818991    1.359756   -0.445012 H         1 <1>         0.147000 
     29 H           3.650651    3.582174   -1.121930 H         1 <1>         0.135900 
     30 H           4.906657    3.841714   -3.243499 H         1 <1>         0.136200 
     31 H           5.847756    2.901632   -5.266546 H         1 <1>         0.130800 
     32 H           6.316091    0.957852   -6.731204 H         1 <1>         0.132000 
     33 H           5.533793   -1.311653   -6.057991 H         1 <1>         0.134100 
     34 H           4.334233   -1.646803   -3.947635 H         1 <1>         0.168900 
     35 H           2.634335   -2.941167    0.156956 H         1 <1>         0.185500 
     36 H          -1.197220   -1.515810    1.127970 H         1 <1>         0.351800 
@<TRIPOS>BOND
     1   16   33 1    
     2    2   27 1    
     3    2   26 1    
     4   15   32 1    
     5   16   15 ar   
     6   17   16 ar   
     7   17   34 1    
     8    3    2 1    
     9    4    3 1    
    10   14   15 ar   
    11    2    1 1    
    12   18   17 ar   
    13    5    4 ar   
    14    4   22 ar   
    15    6    5 ar   
    16   22   36 1    
    17   14   31 1    
    18   13   14 ar   
    19   22   20 ar   
    20   18   13 ar   
    21    9   18 ar   
    22    7    6 1    
    23    6   19 ar   
    24    7    8 2    
    25   13   12 ar   
    26    7    9 1    
    27   20   19 ar   
    28   20   21 2    
    29    1   24 1    
    30    1   23 1    
    31    1   25 1    
    32    9   10 ar   
    33   19   35 1    
    34   12   30 1    
    35   12   11 ar   
    36   10   11 ar   
    37   10   28 1    
    38   11   29 1    
@<TRIPOS>SUBSTRUCTURE
     1 ****       27 TEMP              0 ****  ****    0 ROOT 
