#	Name:			LJ-2007-JMC-1778-3U
#	Creating user name:	Administrator
#	Creation time:		Sun Jul 05 16:55:56 2020

#	Modifying user name:	Administrator
#	Modification time:	Sun Jul 05 16:57:59 2020

@<TRIPOS>MOLECULE
LJ-2007-JMC-1778-3U
   58    61     1     0     0
SMALL
MULLIKEN_CHARGES
INVALID_CHARGES
Gaussian 16 #p B3LYP/6-31G* opt
@<TRIPOS>ATOM
      1 C          -3.842674   -1.775898    6.341757 C.3       1 <1>        -0.221700 
      2 O          -3.528751   -0.521552    5.751776 O.3       1 <1>        -0.502100 
      3 C          -3.408033   -0.456669    4.398733 C.ar      1 <1>         0.380600 
      4 C          -3.072249    0.805811    3.877650 C.ar      1 <1>        -0.168900 
      5 C          -2.916347    0.981036    2.512462 C.ar      1 <1>        -0.165900 
      6 C          -3.094348   -0.090739    1.618778 C.ar      1 <1>         0.142600 
      7 C          -2.966776    0.092971    0.124244 C.3       1 <1>        -0.550000 
      8 S          -1.406193    0.866123   -0.513947 S.3       1 <1>         0.204400 
      9 C          -0.156363   -0.371410   -0.258853 C.ar      1 <1>         0.318200 
     10 N           0.942524   -0.219375   -0.935913 N.ar      1 <1>        -0.491600 
     11 C           1.953343   -1.135110   -0.750795 C.ar      1 <1>         0.202200 
     12 C           3.182819   -0.838287   -1.612994 C.3       1 <1>        -0.321400 
     13 C           2.765596   -0.553725   -3.001087 C.1       1 <1>         0.385300 
     14 N           2.486970   -0.357956   -4.110676 N.1       1 <1>        -0.475500 
     15 C           4.104323    0.276761   -1.081072 C.ar      1 <1>         0.106000 
     16 C           3.644318    1.215170   -0.181663 C.ar      1 <1>        -0.176800 
     17 C           4.497974    2.217205    0.337003 C.ar      1 <1>        -0.138000 
     18 C           5.814021    2.273735   -0.049328 C.ar      1 <1>        -0.182800 
     19 C           6.331628    1.338957   -0.984637 C.ar      1 <1>         0.135800 
     20 C           7.688979    1.392373   -1.399007 C.ar      1 <1>        -0.193300 
     21 C           8.189062    0.496238   -2.315148 C.ar      1 <1>        -0.130700 
     22 C           7.341204   -0.493458   -2.862154 C.ar      1 <1>        -0.134100 
     23 C           6.020172   -0.576226   -2.478766 C.ar      1 <1>        -0.193200 
     24 C           5.469209    0.325174   -1.524735 C.ar      1 <1>         0.091600 
     25 C           1.874317   -2.221964    0.091168 C.ar      1 <1>         0.051100 
     26 C           2.919891   -3.305556    0.339799 C.3       1 <1>        -0.164100 
     27 C           4.275611   -2.786068    0.856734 C.3       1 <1>        -0.453300 
     28 C           3.077203   -4.270784   -0.853892 C.3       1 <1>        -0.448500 
     29 C           0.631535   -2.395511    0.848498 C.ar      1 <1>         0.567700 
     30 O           0.372341   -3.292208    1.643710 O.2       1 <1>        -0.524100 
     31 N          -0.339850   -1.398076    0.610407 N.ar      1 <1>        -0.649100 
     32 C          -3.432882   -1.339056    2.149918 C.ar      1 <1>        -0.212500 
     33 C          -3.589214   -1.534173    3.526807 C.ar      1 <1>        -0.182100 
     34 H          -4.818681   -2.146262    6.002351 H         1 <1>         0.155600 
     35 H          -3.878313   -1.597902    7.417634 H         1 <1>         0.176300 
     36 H          -3.072666   -2.526346    6.121943 H         1 <1>         0.161900 
     37 H          -2.934832    1.630142    4.570290 H         1 <1>         0.149800 
     38 H          -2.643026    1.960310    2.128212 H         1 <1>         0.148900 
     39 H          -3.719257    0.795703   -0.252162 H         1 <1>         0.209100 
     40 H          -3.126599   -0.851591   -0.404558 H         1 <1>         0.197100 
     41 H           3.774599   -1.753887   -1.662487 H         1 <1>         0.192300 
     42 H           2.607045    1.196826    0.130022 H         1 <1>         0.152000 
     43 H           4.100185    2.938365    1.045415 H         1 <1>         0.134500 
     44 H           6.478000    3.037034    0.349200 H         1 <1>         0.132600 
     45 H           8.328399    2.164130   -0.976882 H         1 <1>         0.132700 
     46 H           9.229035    0.550174   -2.624688 H         1 <1>         0.133400 
     47 H           7.732046   -1.191549   -3.597207 H         1 <1>         0.135500 
     48 H           5.391769   -1.329711   -2.941080 H         1 <1>         0.141300 
     49 H           2.489539   -3.899662    1.151724 H         1 <1>         0.179700 
     50 H           4.854231   -2.245452    0.101069 H         1 <1>         0.151600 
     51 H           4.887747   -3.633220    1.188094 H         1 <1>         0.146300 
     52 H           4.139828   -2.115755    1.712135 H         1 <1>         0.154200 
     53 H           3.735400   -5.102484   -0.576364 H         1 <1>         0.149100 
     54 H           2.109139   -4.690698   -1.146936 H         1 <1>         0.157400 
     55 H           3.512393   -3.791820   -1.739006 H         1 <1>         0.145500 
     56 H          -1.169577   -1.461746    1.194864 H         1 <1>         0.367900 
     57 H          -3.589594   -2.184827    1.483039 H         1 <1>         0.143600 
     58 H          -3.844442   -2.520012    3.896659 H         1 <1>         0.145600 
@<TRIPOS>BOND
     1    1   35 1    
     2   18   44 1    
     3    1   36 1    
     4   20   45 1    
     5    2    1 1    
     6    1   34 1    
     7   17   43 1    
     8    3    2 1    
     9   27   52 1    
    10   17   18 ar   
    11   19   18 ar   
    12   27   51 1    
    13    4   37 1    
    14   16   17 ar   
    15   19   20 ar   
    16   20   21 ar   
    17   27   50 1    
    18   26   27 1    
    19   24   19 ar   
    20   21   46 1    
    21    4    3 ar   
    22   33    3 ar   
    23   22   21 ar   
    24    5    4 ar   
    25   16   42 1    
    26   15   16 ar   
    27   26   49 1    
    28   15   24 ar   
    29   24   23 ar   
    30   25   26 1    
    31   26   28 1    
    32   33   58 1    
    33   29   30 2    
    34   32   33 ar   
    35   12   15 1    
    36   23   22 ar   
    37   22   47 1    
    38    5   38 1    
    39    6    5 ar   
    40   29   25 ar   
    41   31   29 ar   
    42   11   25 ar   
    43   23   48 1    
    44   28   53 1    
    45   31   56 1    
    46   28   55 1    
    47   28   54 1    
    48    9   31 ar   
    49   12   41 1    
    50   11   12 1    
    51   10   11 ar   
    52    6   32 ar   
    53   32   57 1    
    54   12   13 1    
    55    7    6 1    
    56    9   10 ar   
    57    8    9 1    
    58    8    7 1    
    59    7   39 1    
    60    7   40 1    
    61   13   14 3    
@<TRIPOS>SUBSTRUCTURE
     1 ****       30 TEMP              0 ****  ****    0 ROOT 
