#	Name:			LJ-2007-JMC-1778-3R
#	Creating user name:	Administrator
#	Creation time:		Sun Jul 05 16:55:55 2020

#	Modifying user name:	Administrator
#	Modification time:	Sun Jul 05 16:57:59 2020

@<TRIPOS>MOLECULE
LJ-2007-JMC-1778-3R
   47    49     1     0     0
SMALL
MULLIKEN_CHARGES
INVALID_CHARGES
Gaussian 16 #p B3LYP/6-31G* opt
@<TRIPOS>ATOM
      1 C           3.619493   -3.176581    1.689083 C.3       1 <1>        -0.451100 
      2 C           2.878954   -3.327451    0.346872 C.3       1 <1>        -0.335200 
      3 C           1.866653   -2.233494    0.095577 C.ar      1 <1>         0.043100 
      4 C           1.983918   -1.161132   -0.752836 C.ar      1 <1>         0.229300 
      5 C           3.179964   -0.839578   -1.657020 C.3       1 <1>        -0.326800 
      6 C           4.503494   -1.179115   -1.108958 C.1       1 <1>         0.391600 
      7 N           5.575925   -1.386333   -0.715279 N.1       1 <1>        -0.483400 
      8 C           3.018590   -1.378215   -3.089738 C.ar      1 <1>         0.165800 
      9 C           3.402394   -0.568023   -4.165181 C.ar      1 <1>        -0.176600 
     10 C           3.276528   -1.024956   -5.477787 C.ar      1 <1>        -0.129600 
     11 C           2.764461   -2.299543   -5.727995 C.ar      1 <1>        -0.127400 
     12 C           2.381990   -3.112265   -4.659053 C.ar      1 <1>        -0.131800 
     13 C           2.508109   -2.655458   -3.346439 C.ar      1 <1>        -0.169400 
     14 N           0.989920   -0.216346   -0.947812 N.ar      1 <1>        -0.523100 
     15 C          -0.121550   -0.348553   -0.293263 C.ar      1 <1>         0.344200 
     16 S          -1.471398    0.802879   -0.437938 S.3       1 <1>         0.170200 
     17 C          -0.908091    1.855562   -1.855290 C.3       1 <1>        -0.532800 
     18 C          -1.345727    1.353527   -3.207320 C.ar      1 <1>         0.197100 
     19 C          -0.508816    0.516829   -3.960412 C.ar      1 <1>        -0.192800 
     20 C          -0.904191    0.055755   -5.212796 C.ar      1 <1>        -0.153100 
     21 C          -2.148795    0.441035   -5.705788 C.ar      1 <1>         0.275100 
     22 N          -2.572966   -0.038574   -7.030727 N.pl3     1 <1>         0.379800 
     23 O          -3.677559    0.317438   -7.440833 O.2       1 <1>        -0.393600 
     24 O          -1.797895   -0.767085   -7.649899 O.2       1 <1>        -0.394000 
     25 C          -3.003361    1.272379   -4.983486 C.ar      1 <1>        -0.146000 
     26 C          -2.592180    1.724842   -3.734049 C.ar      1 <1>        -0.186000 
     27 N          -0.336348   -1.369088    0.580086 N.ar      1 <1>        -0.653000 
     28 C           0.617258   -2.375482    0.849546 C.ar      1 <1>         0.588700 
     29 O           0.343201   -3.266315    1.640914 O.2       1 <1>        -0.509700 
     30 H           2.908019   -3.157923    2.519363 H         1 <1>         0.168400 
     31 H           4.218076   -2.261211    1.708956 H         1 <1>         0.162100 
     32 H           4.296506   -4.024407    1.838863 H         1 <1>         0.152400 
     33 H           3.603629   -3.383057   -0.468211 H         1 <1>         0.157300 
     34 H           2.331249   -4.277074    0.358501 H         1 <1>         0.168500 
     35 H           3.173421    0.254352   -1.731679 H         1 <1>         0.211500 
     36 H           3.805233    0.424106   -3.975180 H         1 <1>         0.139200 
     37 H           3.577257   -0.384796   -6.302480 H         1 <1>         0.144600 
     38 H           2.663590   -2.656911   -6.748892 H         1 <1>         0.147000 
     39 H           1.981308   -4.104719   -4.845216 H         1 <1>         0.145700 
     40 H           2.195978   -3.291876   -2.524360 H         1 <1>         0.149800 
     41 H           0.178310    1.913763   -1.771373 H         1 <1>         0.227300 
     42 H          -1.335196    2.837684   -1.635774 H         1 <1>         0.201000 
     43 H           0.455235    0.222587   -3.560436 H         1 <1>         0.175700 
     44 H          -0.264819   -0.588298   -5.803761 H         1 <1>         0.189000 
     45 H          -3.960827    1.552021   -5.404959 H         1 <1>         0.186000 
     46 H          -3.247946    2.376418   -3.162125 H         1 <1>         0.145200 
     47 H          -1.218161   -1.468140    1.073847 H         1 <1>         0.359800 
@<TRIPOS>BOND
     1    9   36 1    
     2   17   42 1    
     3   17   41 1    
     4    5   35 1    
     5    6    7 3    
     6   17   18 1    
     7   16   17 1    
     8   10   37 1    
     9    5    6 1    
    10    9   10 ar   
    11    8    9 ar   
    12    5    8 1    
    13    4    5 1    
    14   26   46 1    
    15   18   26 ar   
    16   18   19 ar   
    17   10   11 ar   
    18   19   43 1    
    19   26   25 ar   
    20    4   14 ar   
    21   14   15 ar   
    22   19   20 ar   
    23   15   16 1    
    24    8   13 ar   
    25    1   31 1    
    26    3    4 ar   
    27   25   45 1    
    28   25   21 ar   
    29   15   27 ar   
    30   20   21 ar   
    31   20   44 1    
    32   21   22 1    
    33   11   38 1    
    34   11   12 ar   
    35    2    3 1    
    36    3   28 ar   
    37    1   30 1    
    38    1   32 1    
    39    1    2 1    
    40   27   47 1    
    41   27   28 ar   
    42   13   12 ar   
    43   13   40 1    
    44   22   23 2    
    45   22   24 2    
    46    2   33 1    
    47    2   34 1    
    48   28   29 2    
    49   12   39 1    
@<TRIPOS>SUBSTRUCTURE
     1 ****       31 TEMP              0 ****  ****    0 ROOT 
