#	Name:			LJ-2007-JMC-1778-3T
#	Creating user name:	Administrator
#	Creation time:		Sun Jul 05 16:55:55 2020

#	Modifying user name:	Administrator
#	Modification time:	Sun Jul 05 16:57:59 2020

@<TRIPOS>MOLECULE
LJ-2007-JMC-1778-3T
   54    57     1     0     0
SMALL
MULLIKEN_CHARGES
INVALID_CHARGES
Gaussian 16 #p B3LYP/6-31G* opt
@<TRIPOS>ATOM
      1 C           2.493573   -4.668321   -0.206508 C.3       1 <1>        -0.457600 
      2 C           2.960526   -3.273688    0.261178 C.3       1 <1>        -0.150400 
      3 C           3.489196   -3.310481    1.710251 C.3       1 <1>        -0.454600 
      4 C           1.868386   -2.227921    0.083173 C.ar      1 <1>         0.062100 
      5 C           1.943744   -1.134740   -0.756363 C.ar      1 <1>         0.232300 
      6 C           3.213896   -0.846673   -1.594360 C.3       1 <1>        -0.370600 
      7 C           3.332309   -1.826678   -2.691418 C.1       1 <1>         0.383900 
      8 N           3.436488   -2.629082   -3.524511 N.1       1 <1>        -0.483300 
      9 C           3.390880    0.604536   -2.052456 C.ar      1 <1>         0.140100 
     10 C           4.301720    1.364806   -1.344823 C.ar      1 <1>        -0.200200 
     11 C           4.569992    2.711177   -1.678990 C.ar      1 <1>        -0.131900 
     12 C           3.928466    3.288752   -2.746607 C.ar      1 <1>        -0.184000 
     13 C           2.987015    2.550065   -3.511087 C.ar      1 <1>         0.133700 
     14 C           2.323056    3.145997   -4.617299 C.ar      1 <1>        -0.196000 
     15 C           1.404540    2.439999   -5.357358 C.ar      1 <1>        -0.129400 
     16 C           1.106655    1.101219   -5.012778 C.ar      1 <1>        -0.143600 
     17 C           1.730444    0.494233   -3.945925 C.ar      1 <1>        -0.168900 
     18 C           2.695507    1.186812   -3.163416 C.ar      1 <1>         0.112300 
     19 N           0.951200   -0.208991   -0.924126 N.ar      1 <1>        -0.504500 
     20 C          -0.153013   -0.363176   -0.253028 C.ar      1 <1>         0.320100 
     21 S          -1.410781    0.857060   -0.522205 S.3       1 <1>         0.211400 
     22 C          -2.763915    0.392886    0.643165 C.3       1 <1>        -0.300600 
     23 C          -3.585480   -0.883508    0.266741 C.3       1 <1>        -0.288000 
     24 C          -5.027811   -0.389839    0.018145 C.3       1 <1>        -0.271300 
     25 C          -5.142177    0.874813    0.883026 C.3       1 <1>        -0.275500 
     26 C          -3.785214    1.563744    0.668599 C.3       1 <1>        -0.284300 
     27 N          -0.333624   -1.399701    0.606323 N.ar      1 <1>        -0.646600 
     28 C           0.639508   -2.400773    0.849756 C.ar      1 <1>         0.581300 
     29 O           0.366233   -3.289289    1.650743 O.2       1 <1>        -0.526000 
     30 H           2.195586   -4.647061   -1.260143 H         1 <1>         0.157800 
     31 H           3.314592   -5.387323   -0.103990 H         1 <1>         0.141500 
     32 H           1.650263   -5.017995    0.393965 H         1 <1>         0.177200 
     33 H           3.801951   -3.000447   -0.382767 H         1 <1>         0.134700 
     34 H           4.313043   -4.029502    1.788013 H         1 <1>         0.142300 
     35 H           2.700712   -3.611102    2.403951 H         1 <1>         0.184200 
     36 H           3.867832   -2.329138    2.020682 H         1 <1>         0.132000 
     37 H           4.068789   -1.055351   -0.941789 H         1 <1>         0.209200 
     38 H           4.832429    0.919004   -0.506501 H         1 <1>         0.128400 
     39 H           5.291494    3.274844   -1.094452 H         1 <1>         0.132400 
     40 H           4.132304    4.320136   -3.024408 H         1 <1>         0.131700 
     41 H           2.557839    4.178227   -4.866423 H         1 <1>         0.129000 
     42 H           0.904929    2.906383   -6.202144 H         1 <1>         0.129800 
     43 H           0.375697    0.545454   -5.593607 H         1 <1>         0.132500 
     44 H           1.472221   -0.527775   -3.700043 H         1 <1>         0.145100 
     45 H          -2.316198    0.290153    1.637185 H         1 <1>         0.177200 
     46 H          -3.171550   -1.406908   -0.599701 H         1 <1>         0.171900 
     47 H          -3.572658   -1.587026    1.109317 H         1 <1>         0.151400 
     48 H          -5.777210   -1.150917    0.257290 H         1 <1>         0.150300 
     49 H          -5.155274   -0.125233   -1.038880 H         1 <1>         0.151300 
     50 H          -5.985825    1.514936    0.605287 H         1 <1>         0.151400 
     51 H          -5.268051    0.602765    1.939460 H         1 <1>         0.143200 
     52 H          -3.792783    2.080221   -0.300215 H         1 <1>         0.166800 
     53 H          -3.534867    2.306610    1.431329 H         1 <1>         0.161500 
     54 H          -1.199453   -1.534730    1.114966 H         1 <1>         0.357200 
@<TRIPOS>BOND
     1   11   39 1    
     2   10   11 ar   
     3   11   12 ar   
     4   10   38 1    
     5   12   40 1    
     6    3   36 1    
     7   26   53 1    
     8    9   10 ar   
     9   13   12 ar   
    10   22   45 1    
    11    3   35 1    
    12    3   34 1    
    13    2    3 1    
    14   22   26 1    
    15   26   52 1    
    16   26   25 1    
    17   25   51 1    
    18    6   37 1    
    19   21   22 1    
    20   22   23 1    
    21    6    9 1    
    22    9   18 ar   
    23   18   13 ar   
    24   13   14 ar   
    25   20   21 1    
    26   27   54 1    
    27   25   50 1    
    28   25   24 1    
    29   27   20 ar   
    30   28   27 ar   
    31   19   20 ar   
    32   28   29 2    
    33    4   28 ar   
    34    5   19 ar   
    35   14   41 1    
    36    4    5 ar   
    37    5    6 1    
    38    4    2 1    
    39    6    7 1    
    40    2   33 1    
    41    2    1 1    
    42   18   17 ar   
    43   14   15 ar   
    44   23   47 1    
    45   23   24 1    
    46   23   46 1    
    47   24   48 1    
    48   24   49 1    
    49    1   32 1    
    50    1   31 1    
    51    1   30 1    
    52    7    8 3    
    53   17   44 1    
    54   17   16 ar   
    55   15   42 1    
    56   15   16 ar   
    57   16   43 1    
@<TRIPOS>SUBSTRUCTURE
     1 ****       54 TEMP              0 ****  ****    0 ROOT 
