#	Name:			LJ-2007-JMC-1778-4J
#	Creating user name:	Administrator
#	Creation time:		Sun Jul 05 16:55:56 2020

#	Modifying user name:	Administrator
#	Modification time:	Sun Jul 05 16:57:59 2020

@<TRIPOS>MOLECULE
LJ-2007-JMC-1778-4J
   49    52     1     0     0
SMALL
MULLIKEN_CHARGES
INVALID_CHARGES
Gaussian 16 #p B3LYP/6-31G* opt
@<TRIPOS>ATOM
      1 C           3.735398   -2.978680    1.642899 C.3       1 <1>        -0.449700 
      2 C           2.952740   -3.238988    0.342559 C.3       1 <1>        -0.315100 
      3 C           1.870181   -2.216898    0.100665 C.ar      1 <1>         0.055800 
      4 C           1.946527   -1.138806   -0.750976 C.ar      1 <1>         0.118000 
      5 C           3.227445   -0.815167   -1.509089 C.2       1 <1>         0.363600 
      6 O           4.279101   -0.802787   -0.880460 O.2       1 <1>        -0.462700 
      7 C           3.139786   -0.528164   -2.969602 C.ar      1 <1>         0.059200 
      8 C           2.072134   -1.065306   -3.675557 C.ar      1 <1>        -0.172300 
      9 C           1.954912   -0.920001   -5.071958 C.ar      1 <1>        -0.138000 
     10 C           2.905758   -0.208111   -5.764459 C.ar      1 <1>        -0.176500 
     11 C           4.010797    0.379696   -5.094367 C.ar      1 <1>         0.132400 
     12 C           4.978254    1.126366   -5.818630 C.ar      1 <1>        -0.196500 
     13 C           6.049623    1.703179   -5.178172 C.ar      1 <1>        -0.127900 
     14 C           6.190623    1.552733   -3.780140 C.ar      1 <1>        -0.137700 
     15 C           5.274015    0.830261   -3.046013 C.ar      1 <1>        -0.181500 
     16 C           4.153734    0.218077   -3.673648 C.ar      1 <1>         0.071700 
     17 N           0.941904   -0.216270   -0.945267 N.ar      1 <1>        -0.498300 
     18 C          -0.151503   -0.362804   -0.257856 C.ar      1 <1>         0.322500 
     19 S          -1.408091    0.867488   -0.515502 S.3       1 <1>         0.224400 
     20 C          -2.776519    0.339417    0.620719 C.3       1 <1>        -0.546000 
     21 C          -3.912551    1.325773    0.498847 C.ar      1 <1>         0.141800 
     22 C          -4.930470    1.124432   -0.441984 C.ar      1 <1>        -0.158600 
     23 C          -5.977149    2.038704   -0.559027 C.ar      1 <1>        -0.128800 
     24 C          -6.014927    3.167750    0.261421 C.ar      1 <1>        -0.124200 
     25 C          -5.001609    3.378622    1.198424 C.ar      1 <1>        -0.128900 
     26 C          -3.955502    2.463713    1.314741 C.ar      1 <1>        -0.158100 
     27 N          -0.336165   -1.397938    0.608425 N.ar      1 <1>        -0.651400 
     28 C           0.634620   -2.400837    0.853245 C.ar      1 <1>         0.582100 
     29 O           0.374183   -3.301466    1.641538 O.2       1 <1>        -0.522400 
     30 H           4.252602   -2.016805    1.586311 H         1 <1>         0.168300 
     31 H           4.482097   -3.765606    1.798707 H         1 <1>         0.142000 
     32 H           3.062456   -2.974849    2.506032 H         1 <1>         0.159700 
     33 H           3.647952   -3.259343   -0.500409 H         1 <1>         0.150400 
     34 H           2.472975   -4.222411    0.407564 H         1 <1>         0.159000 
     35 H           1.310726   -1.625006   -3.143802 H         1 <1>         0.145300 
     36 H           1.112422   -1.367842   -5.590685 H         1 <1>         0.136500 
     37 H           2.824479   -0.082421   -6.841669 H         1 <1>         0.136900 
     38 H           4.850704    1.235627   -6.893084 H         1 <1>         0.130900 
     39 H           6.783820    2.273698   -5.740488 H         1 <1>         0.132000 
     40 H           7.035895    2.011758   -3.274283 H         1 <1>         0.134200 
     41 H           5.406402    0.711736   -1.979991 H         1 <1>         0.175900 
     42 H          -2.396899    0.318206    1.647244 H         1 <1>         0.193400 
     43 H          -3.110007   -0.663913    0.336335 H         1 <1>         0.191000 
     44 H          -4.903349    0.246494   -1.083263 H         1 <1>         0.136400 
     45 H          -6.763231    1.868100   -1.289309 H         1 <1>         0.139500 
     46 H          -6.831120    3.879131    0.172068 H         1 <1>         0.139000 
     47 H          -5.025757    4.254579    1.840624 H         1 <1>         0.140300 
     48 H          -3.166966    2.631614    2.044411 H         1 <1>         0.138700 
     49 H          -1.192758   -1.514108    1.136974 H         1 <1>         0.354000 
@<TRIPOS>BOND
     1    9   36 1    
     2   10   37 1    
     3    9   10 ar   
     4    8    9 ar   
     5    8   35 1    
     6   22   44 1    
     7   11   10 ar   
     8   23   45 1    
     9    7    8 ar   
    10    2   34 1    
    11   20   43 1    
    12   22   23 ar   
    13   21   22 ar   
    14   28   29 2    
    15   23   24 ar   
    16    2   33 1    
    17   12   38 1    
    18   11   12 ar   
    19   16   11 ar   
    20   28   27 ar   
    21    3   28 ar   
    22    3    2 1    
    23    2    1 1    
    24   27   49 1    
    25    7   16 ar   
    26    5    7 1    
    27   18   27 ar   
    28    4    3 ar   
    29   20   21 1    
    30   19   20 1    
    31   20   42 1    
    32   12   13 ar   
    33   17   18 ar   
    34   18   19 1    
    35    4   17 ar   
    36    4    5 1    
    37   21   26 ar   
    38   16   15 ar   
    39    5    6 2    
    40   24   46 1    
    41   24   25 ar   
    42    1   31 1    
    43    1   32 1    
    44    1   30 1    
    45   13   39 1    
    46   13   14 ar   
    47   26   25 ar   
    48   26   48 1    
    49   15   14 ar   
    50   15   41 1    
    51   25   47 1    
    52   14   40 1    
@<TRIPOS>SUBSTRUCTURE
     1 ****       34 TEMP              0 ****  ****    0 ROOT 
