#	Name:			LJ-2007-JMC-1778-4L
#	Creating user name:	Administrator
#	Creation time:		Sun Jul 05 16:55:57 2020

#	Modifying user name:	Administrator
#	Modification time:	Sun Jul 05 16:57:59 2020

@<TRIPOS>MOLECULE
LJ-2007-JMC-1778-4L
   43    45     1     0     0
SMALL
MULLIKEN_CHARGES
INVALID_CHARGES
Gaussian 16 #p B3LYP/6-31G* opt
@<TRIPOS>ATOM
      1 C           3.705072   -2.966625    1.699418 C.3       1 <1>        -0.450000 
      2 C           2.939092   -3.250477    0.393837 C.3       1 <1>        -0.317900 
      3 C           1.870495   -2.224142    0.114586 C.ar      1 <1>         0.057000 
      4 C           1.977682   -1.160444   -0.746247 C.ar      1 <1>         0.132300 
      5 C           3.265168   -0.875387   -1.496516 C.2       1 <1>         0.357700 
      6 O           4.319441   -0.817828   -0.878641 O.2       1 <1>        -0.454700 
      7 C           3.220764   -0.656147   -2.973540 C.ar      1 <1>         0.088600 
      8 C           4.352593   -0.099878   -3.591366 C.ar      1 <1>        -0.156800 
      9 C           4.381609    0.085563   -4.970109 C.ar      1 <1>        -0.133900 
     10 C           3.286649   -0.299492   -5.749879 C.ar      1 <1>        -0.118500 
     11 C           2.163203   -0.868560   -5.145911 C.ar      1 <1>        -0.140300 
     12 C           2.126466   -1.042041   -3.762845 C.ar      1 <1>        -0.159200 
     13 N           0.988912   -0.221284   -0.975692 N.ar      1 <1>        -0.507200 
     14 C          -0.115701   -0.338803   -0.299644 C.ar      1 <1>         0.334600 
     15 S          -1.473181    0.798283   -0.420372 S.3       1 <1>         0.140500 
     16 C          -0.874271    2.158799   -1.517127 C.3       1 <1>        -0.266800 
     17 C           0.399692    2.924295   -1.050139 C.3       1 <1>        -0.259000 
     18 C           1.209986    3.184181   -2.346416 C.3       1 <1>        -0.273900 
     19 C           0.216783    2.952085   -3.502945 C.3       1 <1>        -0.277600 
     20 C          -0.652297    1.789595   -2.997294 C.3       1 <1>        -0.266500 
     21 N          -0.327617   -1.366671    0.575067 N.ar      1 <1>        -0.653000 
     22 C           0.614804   -2.382313    0.846880 C.ar      1 <1>         0.586800 
     23 O           0.336262   -3.272155    1.639694 O.2       1 <1>        -0.517400 
     24 H           4.233167   -2.011499    1.627890 H         1 <1>         0.168000 
     25 H           4.440841   -3.757155    1.885404 H         1 <1>         0.143300 
     26 H           3.019396   -2.934837    2.551941 H         1 <1>         0.161900 
     27 H           3.646672   -3.295709   -0.438117 H         1 <1>         0.148800 
     28 H           2.449421   -4.227695    0.473275 H         1 <1>         0.162300 
     29 H           5.197418    0.176558   -2.968812 H         1 <1>         0.164300 
     30 H           5.257375    0.524590   -5.440116 H         1 <1>         0.140600 
     31 H           3.311096   -0.159725   -6.827406 H         1 <1>         0.139800 
     32 H           1.316468   -1.178328   -5.752052 H         1 <1>         0.139200 
     33 H           1.252593   -1.485228   -3.297503 H         1 <1>         0.148300 
     34 H          -1.739278    2.829681   -1.449902 H         1 <1>         0.175400 
     35 H           0.105057    3.857748   -0.558660 H         1 <1>         0.142800 
     36 H           0.981226    2.345766   -0.331344 H         1 <1>         0.169600 
     37 H           2.023783    2.455149   -2.418889 H         1 <1>         0.160000 
     38 H           1.658071    4.183043   -2.366416 H         1 <1>         0.137300 
     39 H          -0.402111    3.845803   -3.663428 H         1 <1>         0.132600 
     40 H           0.714610    2.723003   -4.451047 H         1 <1>         0.145800 
     41 H          -0.092890    0.853974   -3.070835 H         1 <1>         0.178500 
     42 H          -1.597964    1.673107   -3.537007 H         1 <1>         0.139700 
     43 H          -1.196210   -1.438141    1.096372 H         1 <1>         0.357300 
@<TRIPOS>BOND
     1   11   32 1    
     2   12   11 ar   
     3   11   10 ar   
     4   12   33 1    
     5   10   31 1    
     6   20   42 1    
     7    7   12 ar   
     8    9   10 ar   
     9   20   41 1    
    10    2   28 1    
    11   22   23 2    
    12   21   43 1    
    13   16   20 1    
    14   20   19 1    
    15   22   21 ar   
    16   14   21 ar   
    17    3   22 ar   
    18   14   15 1    
    19   15   16 1    
    20   13   14 ar   
    21    3    2 1    
    22    4    3 ar   
    23    2   27 1    
    24    2    1 1    
    25   19   40 1    
    26    5    7 1    
    27    7    8 ar   
    28    4   13 ar   
    29    9   30 1    
    30    8    9 ar   
    31    4    5 1    
    32   16   34 1    
    33   16   17 1    
    34   19   39 1    
    35   19   18 1    
    36    5    6 2    
    37    8   29 1    
    38    1   25 1    
    39    1   26 1    
    40    1   24 1    
    41   18   37 1    
    42   18   17 1    
    43   18   38 1    
    44   17   36 1    
    45   17   35 1    
@<TRIPOS>SUBSTRUCTURE
     1 ****       43 TEMP              0 ****  ****    0 ROOT 
