#	Name:			LJ-2007-JMC-1778-3V
#	Creating user name:	Administrator
#	Creation time:		Sun Jul 05 16:55:56 2020

#	Modifying user name:	Administrator
#	Modification time:	Sun Jul 05 16:57:59 2020

@<TRIPOS>MOLECULE
LJ-2007-JMC-1778-3V
   52    54     1     0     0
SMALL
MULLIKEN_CHARGES
INVALID_CHARGES
Gaussian 16 #p B3LYP/6-31G* opt
@<TRIPOS>ATOM
      1 C          -6.615184   -4.442780    0.134879 C.3       1 <1>        -0.220300 
      2 O          -5.840912   -3.985097    1.234781 O.3       1 <1>        -0.501400 
      3 C          -5.078591   -2.870390    1.072934 C.ar      1 <1>         0.381500 
      4 C          -5.009790   -2.113521   -0.106157 C.ar      1 <1>        -0.192000 
      5 C          -4.189253   -0.987793   -0.160097 C.ar      1 <1>        -0.170900 
      6 C          -3.426668   -0.586686    0.942536 C.ar      1 <1>         0.134700 
      7 C          -2.570177    0.659731    0.912167 C.3       1 <1>        -0.546500 
      8 S          -1.408651    0.864130   -0.517017 S.3       1 <1>         0.194200 
      9 C          -0.151816   -0.363933   -0.248961 C.ar      1 <1>         0.331500 
     10 N           0.948713   -0.207189   -0.926428 N.ar      1 <1>        -0.526600 
     11 C           1.940668   -1.148926   -0.768149 C.ar      1 <1>         0.213600 
     12 C           3.153000   -0.825998   -1.664072 C.3       1 <1>        -0.304900 
     13 C           3.471102   -1.938608   -2.570112 C.1       1 <1>         0.374900 
     14 N           3.713527   -2.804530   -3.304807 N.1       1 <1>        -0.498300 
     15 C           4.371848   -0.298706   -0.890314 C.ar      1 <1>         0.155100 
     16 C           5.650175   -0.844396   -1.035045 C.ar      1 <1>        -0.185600 
     17 C           6.729931   -0.306403   -0.329790 C.ar      1 <1>        -0.135600 
     18 C           6.542604    0.780477    0.522683 C.ar      1 <1>        -0.122800 
     19 C           5.267144    1.332968    0.665086 C.ar      1 <1>        -0.134600 
     20 C           4.188798    0.798551   -0.037404 C.ar      1 <1>        -0.168600 
     21 C           1.877982   -2.215783    0.099543 C.ar      1 <1>         0.076500 
     22 C           2.997310   -3.220473    0.321767 C.3       1 <1>        -0.147700 
     23 C           3.488092   -3.206929    1.784496 C.3       1 <1>        -0.457900 
     24 C           2.594988   -4.639197   -0.129759 C.3       1 <1>        -0.458700 
     25 C           0.639234   -2.397135    0.853239 C.ar      1 <1>         0.578000 
     26 O           0.368377   -3.291639    1.646510 O.2       1 <1>        -0.519900 
     27 N          -0.342852   -1.407055    0.595535 N.ar      1 <1>        -0.649200 
     28 C          -3.507246   -1.356295    2.115575 C.ar      1 <1>        -0.201800 
     29 C          -4.318624   -2.483116    2.184998 C.ar      1 <1>        -0.158300 
     30 H          -7.127792   -5.340009    0.485315 H         1 <1>         0.177200 
     31 H          -7.359327   -3.696407   -0.172030 H         1 <1>         0.155100 
     32 H          -5.981469   -4.698641   -0.723982 H         1 <1>         0.159100 
     33 H          -5.583271   -2.393407   -0.982131 H         1 <1>         0.142800 
     34 H          -4.136174   -0.418770   -1.084619 H         1 <1>         0.149900 
     35 H          -3.187312    1.560858    0.815833 H         1 <1>         0.208100 
     36 H          -2.001317    0.767553    1.840857 H         1 <1>         0.194800 
     37 H           2.795277   -0.012035   -2.306752 H         1 <1>         0.226300 
     38 H           5.807797   -1.687604   -1.701356 H         1 <1>         0.157400 
     39 H           7.717919   -0.742177   -0.451221 H         1 <1>         0.137800 
     40 H           7.383007    1.197619    1.070561 H         1 <1>         0.133500 
     41 H           5.111145    2.184074    1.322506 H         1 <1>         0.134700 
     42 H           3.199457    1.235268    0.070220 H         1 <1>         0.149600 
     43 H           3.844638   -2.914226   -0.297186 H         1 <1>         0.138000 
     44 H           4.336802   -3.891926    1.895058 H         1 <1>         0.140000 
     45 H           2.695817   -3.525064    2.466254 H         1 <1>         0.178300 
     46 H           3.823389   -2.205598    2.077610 H         1 <1>         0.143300 
     47 H           2.331223   -4.652383   -1.192518 H         1 <1>         0.156500 
     48 H           3.437200   -5.325800    0.014976 H         1 <1>         0.139900 
     49 H           1.745451   -5.006922    0.451277 H         1 <1>         0.175400 
     50 H          -1.239942   -1.575375    1.043936 H         1 <1>         0.367800 
     51 H          -2.931829   -1.066311    2.992490 H         1 <1>         0.142500 
     52 H          -4.375030   -3.080671    3.088850 H         1 <1>         0.153400 
@<TRIPOS>BOND
     1   13   14 3    
     2   12   13 1    
     3   12   37 1    
     4    4   33 1    
     5    1   32 1    
     6    5   34 1    
     7   11   12 1    
     8   12   15 1    
     9    1   31 1    
    10   24   47 1    
    11   16   38 1    
    12    1   30 1    
    13    2    1 1    
    14    5    4 ar   
    15    4    3 ar   
    16   10   11 ar   
    17    9   10 ar   
    18    6    5 ar   
    19    8    9 1    
    20    7    8 1    
    21   11   21 ar   
    22   15   16 ar   
    23   16   17 ar   
    24   15   20 ar   
    25    9   27 ar   
    26   24   48 1    
    27   24   49 1    
    28   22   24 1    
    29   22   43 1    
    30   21   22 1    
    31   25   21 ar   
    32    3    2 1    
    33    3   29 ar   
    34   17   39 1    
    35   17   18 ar   
    36   27   25 ar   
    37   27   50 1    
    38    6    7 1    
    39    6   28 ar   
    40    7   35 1    
    41   22   23 1    
    42   20   42 1    
    43   20   19 ar   
    44    7   36 1    
    45   25   26 2    
    46   18   19 ar   
    47   18   40 1    
    48   19   41 1    
    49   29   28 ar   
    50   29   52 1    
    51   28   51 1    
    52   23   44 1    
    53   23   46 1    
    54   23   45 1    
@<TRIPOS>SUBSTRUCTURE
     1 ****       33 TEMP              0 ****  ****    0 ROOT 
