#	Name:			LJ-2007-JMC-1778-4E
#	Creating user name:	Administrator
#	Creation time:		Sun Jul 05 16:55:56 2020

#	Modifying user name:	Administrator
#	Modification time:	Sun Jul 05 16:57:59 2020

@<TRIPOS>MOLECULE
LJ-2007-JMC-1778-4E
   36    37     1     0     0
SMALL
MULLIKEN_CHARGES
INVALID_CHARGES
Gaussian 16 #p B3LYP/6-31G* opt
@<TRIPOS>ATOM
      1 C           2.891931   -3.300038    0.333315 C.3       1 <1>        -0.505500 
      2 C           1.859487   -2.236101    0.093081 C.ar      1 <1>         0.056100 
      3 C           1.973922   -1.160938   -0.753565 C.ar      1 <1>         0.145900 
      4 C           3.195133   -0.964523   -1.631040 C.2       1 <1>         0.355700 
      5 O           3.639512   -1.917710   -2.256625 O.2       1 <1>        -0.458100 
      6 C           3.830357    0.385422   -1.728226 C.ar      1 <1>         0.086500 
      7 C           4.770437    0.590153   -2.751313 C.ar      1 <1>        -0.155600 
      8 C           5.431356    1.808671   -2.868429 C.ar      1 <1>        -0.134700 
      9 C           5.173457    2.833553   -1.952860 C.ar      1 <1>        -0.117900 
     10 C           4.251743    2.634356   -0.922989 C.ar      1 <1>        -0.141400 
     11 C           3.578002    1.418613   -0.812153 C.ar      1 <1>        -0.156700 
     12 N           0.994390   -0.203578   -0.942825 N.ar      1 <1>        -0.515400 
     13 C          -0.121306   -0.344463   -0.292883 C.ar      1 <1>         0.329600 
     14 S          -1.467086    0.803899   -0.444551 S.3       1 <1>         0.136600 
     15 C          -0.872889    1.903297   -1.824256 C.3       1 <1>        -0.233100 
     16 C          -1.646296    3.219897   -1.709247 C.3       1 <1>        -0.457600 
     17 C          -1.038820    1.231681   -3.186639 C.3       1 <1>        -0.437300 
     18 N          -0.335691   -1.376307    0.574039 N.ar      1 <1>        -0.650300 
     19 C           0.616121   -2.382116    0.849927 C.ar      1 <1>         0.580700 
     20 O           0.351817   -3.267926    1.651051 O.2       1 <1>        -0.511500 
     21 H           2.970490   -3.499765    1.406807 H         1 <1>         0.172400 
     22 H           3.867658   -3.031744   -0.070162 H         1 <1>         0.169800 
     23 H           2.583034   -4.241653   -0.137568 H         1 <1>         0.179600 
     24 H           4.966647   -0.223940   -3.441480 H         1 <1>         0.163400 
     25 H           6.151032    1.960898   -3.668160 H         1 <1>         0.139000 
     26 H           5.692795    3.784250   -2.040586 H         1 <1>         0.138100 
     27 H           4.057501    3.426425   -0.205029 H         1 <1>         0.136400 
     28 H           2.860919    1.271497   -0.012609 H         1 <1>         0.146700 
     29 H           0.188143    2.064161   -1.618758 H         1 <1>         0.204600 
     30 H          -2.724158    3.066989   -1.838098 H         1 <1>         0.161600 
     31 H          -1.312447    3.902112   -2.499438 H         1 <1>         0.162200 
     32 H          -1.479798    3.706630   -0.743417 H         1 <1>         0.167300 
     33 H          -0.470483    0.299833   -3.236780 H         1 <1>         0.177600 
     34 H          -0.661409    1.900672   -3.970453 H         1 <1>         0.153500 
     35 H          -2.092008    1.017051   -3.397880 H         1 <1>         0.155200 
     36 H          -1.218274   -1.472329    1.067013 H         1 <1>         0.356400 
@<TRIPOS>BOND
     1   17   35 1    
     2   17   33 1    
     3   17   34 1    
     4   15   17 1    
     5    7   24 1    
     6    4    5 2    
     7    1   23 1    
     8    7    8 ar   
     9    6    7 ar   
    10    8   25 1    
    11    3    4 1    
    12    4    6 1    
    13   15   29 1    
    14   15   16 1    
    15   14   15 1    
    16   12    3 ar   
    17    3    2 ar   
    18    8    9 ar   
    19   13   12 ar   
    20   16   30 1    
    21    1   22 1    
    22   16   31 1    
    23    6   11 ar   
    24    2    1 1    
    25    1   21 1    
    26    2   19 ar   
    27   13   14 1    
    28   13   18 ar   
    29   16   32 1    
    30   19   18 ar   
    31   19   20 2    
    32   18   36 1    
    33    9   26 1    
    34    9   10 ar   
    35   11   28 1    
    36   11   10 ar   
    37   10   27 1    
@<TRIPOS>SUBSTRUCTURE
     1 ****       23 TEMP              0 ****  ****    0 ROOT 
