#	Name:			LJ-2007-JMC-1778-3W
#	Creating user name:	Administrator
#	Creation time:		Sun Jul 05 16:55:56 2020

#	Modifying user name:	Administrator
#	Modification time:	Sun Jul 05 16:57:59 2020

@<TRIPOS>MOLECULE
LJ-2007-JMC-1778-3W
   52    54     1     0     0
SMALL
MULLIKEN_CHARGES
INVALID_CHARGES
Gaussian 16 #p B3LYP/6-31G* opt
@<TRIPOS>ATOM
      1 C          -7.418204    4.935448    0.633542 C.3       1 <1>        -0.219500 
      2 O          -7.217057    3.797737   -0.192838 O.3       1 <1>        -0.502300 
      3 C          -6.138504    3.003745    0.048982 C.ar      1 <1>         0.381700 
      4 C          -5.203279    3.216388    1.069521 C.ar      1 <1>        -0.194400 
      5 C          -4.136381    2.328799    1.221335 C.ar      1 <1>        -0.170000 
      6 C          -3.980842    1.224940    0.379133 C.ar      1 <1>         0.141100 
      7 C          -2.820780    0.278982    0.549536 C.3       1 <1>        -0.547400 
      8 S          -1.415880    0.855084   -0.523178 S.3       1 <1>         0.224700 
      9 C          -0.153466   -0.361273   -0.253882 C.ar      1 <1>         0.330000 
     10 N           0.946284   -0.214893   -0.931029 N.ar      1 <1>        -0.513000 
     11 C           1.947256   -1.135280   -0.749873 C.ar      1 <1>         0.233200 
     12 C           3.170232   -0.822790   -1.639016 C.3       1 <1>        -0.338700 
     13 C           2.859540   -1.226025   -3.020932 C.1       1 <1>         0.374900 
     14 N           2.609594   -1.560420   -4.104043 N.1       1 <1>        -0.470300 
     15 C           3.590926    0.643919   -1.562520 C.ar      1 <1>         0.178300 
     16 C           3.034896    1.602338   -2.419374 C.ar      1 <1>        -0.138900 
     17 C           3.395487    2.944593   -2.354769 C.ar      1 <1>        -0.135800 
     18 C           4.334769    3.345715   -1.406585 C.ar      1 <1>        -0.058800 
     19 CL          4.807717    5.032525   -1.306295 Cl        1 <1>        -0.006600 
     20 C           4.911065    2.428075   -0.533435 C.ar      1 <1>        -0.131200 
     21 C           4.530611    1.089034   -0.623035 C.ar      1 <1>        -0.124600 
     22 CL          5.286688   -0.033941    0.504802 Cl        1 <1>         0.000300 
     23 C           1.874228   -2.230194    0.083824 C.ar      1 <1>         0.061000 
     24 C           2.944567   -3.299780    0.253216 C.3       1 <1>        -0.151300 
     25 C           3.452210   -3.393372    1.706752 C.3       1 <1>        -0.459800 
     26 C           2.455086   -4.670042   -0.262336 C.3       1 <1>        -0.455600 
     27 C           0.638993   -2.398674    0.849290 C.ar      1 <1>         0.585500 
     28 O           0.361331   -3.292730    1.641072 O.2       1 <1>        -0.520800 
     29 N          -0.327091   -1.389570    0.618049 N.ar      1 <1>        -0.650200 
     30 C          -4.925048    1.028844   -0.642142 C.ar      1 <1>        -0.163400 
     31 C          -5.990961    1.900687   -0.807094 C.ar      1 <1>        -0.171000 
     32 H          -6.576805    5.636927    0.564088 H         1 <1>         0.157000 
     33 H          -7.565994    4.649456    1.683096 H         1 <1>         0.155500 
     34 H          -8.322698    5.418424    0.260435 H         1 <1>         0.176100 
     35 H          -5.294456    4.058387    1.745687 H         1 <1>         0.140000 
     36 H          -3.415400    2.504725    2.016295 H         1 <1>         0.137100 
     37 H          -2.486615    0.264980    1.591955 H         1 <1>         0.190600 
     38 H          -3.100721   -0.734402    0.244325 H         1 <1>         0.193700 
     39 H           4.015143   -1.434261   -1.319134 H         1 <1>         0.215800 
     40 H           2.303487    1.283376   -3.153734 H         1 <1>         0.178300 
     41 H           2.953747    3.669061   -3.029583 H         1 <1>         0.166500 
     42 H           5.643345    2.741673    0.200402 H         1 <1>         0.178900 
     43 H           3.804239   -3.021577   -0.364197 H         1 <1>         0.133200 
     44 H           3.836787   -2.427562    2.052435 H         1 <1>         0.147900 
     45 H           4.267776   -4.123647    1.766825 H         1 <1>         0.140700 
     46 H           2.652573   -3.711409    2.379242 H         1 <1>         0.184100 
     47 H           2.152157   -4.611784   -1.313912 H         1 <1>         0.148000 
     48 H           3.262866   -5.406797   -0.183512 H         1 <1>         0.143400 
     49 H           1.605829   -5.025961    0.326274 H         1 <1>         0.180700 
     50 H          -1.180561   -1.510466    1.150862 H         1 <1>         0.356100 
     51 H          -4.822425    0.180388   -1.314366 H         1 <1>         0.140500 
     52 H          -6.726240    1.750677   -1.591032 H         1 <1>         0.148600 
@<TRIPOS>BOND
     1   25   44 1    
     2   25   46 1    
     3    5   36 1    
     4    4   35 1    
     5   25   45 1    
     6   20   42 1    
     7   24   25 1    
     8    1   33 1    
     9   21   22 1    
    10    7   37 1    
    11   27   28 2    
    12    5    4 ar   
    13    6    5 ar   
    14    4    3 ar   
    15   21   20 ar   
    16   20   18 ar   
    17   29   50 1    
    18    1   32 1    
    19   27   29 ar   
    20   23   27 ar   
    21    1   34 1    
    22    2    1 1    
    23   18   19 1    
    24    9   29 ar   
    25   15   21 ar   
    26    7    6 1    
    27    7   38 1    
    28    8    7 1    
    29   23   24 1    
    30   24   43 1    
    31   24   26 1    
    32    6   30 ar   
    33   11   23 ar   
    34   18   17 ar   
    35    3    2 1    
    36    3   31 ar   
    37    9    8 1    
    38   10    9 ar   
    39   26   49 1    
    40   11   10 ar   
    41   12   11 1    
    42   26   48 1    
    43   26   47 1    
    44   15   12 1    
    45   15   16 ar   
    46   12   39 1    
    47   30   31 ar   
    48   30   51 1    
    49   17   16 ar   
    50   17   41 1    
    51   12   13 1    
    52   31   52 1    
    53   16   40 1    
    54   13   14 3    
@<TRIPOS>SUBSTRUCTURE
     1 ****       42 TEMP              0 ****  ****    0 ROOT 
