#	Name:			LJ-2007-JMC-1778-4D
#	Creating user name:	Administrator
#	Creation time:		Sun Jul 05 16:55:56 2020

#	Modifying user name:	Administrator
#	Modification time:	Sun Jul 05 16:57:59 2020

@<TRIPOS>MOLECULE
LJ-2007-JMC-1778-4D
   30    31     1     0     0
SMALL
MULLIKEN_CHARGES
INVALID_CHARGES
Gaussian 16 #p B3LYP/6-31G* opt
@<TRIPOS>ATOM
      1 C          -3.611881   -0.912591   -0.292874 C.3       1 <1>        -0.443400 
      2 C          -2.872002    0.241425    0.385702 C.3       1 <1>        -0.463600 
      3 S          -1.396765    0.864848   -0.522689 S.3       1 <1>         0.217700 
      4 C          -0.149202   -0.371206   -0.263570 C.ar      1 <1>         0.335100 
      5 N           0.951969   -0.200532   -0.938419 N.ar      1 <1>        -0.487500 
      6 C           1.944475   -1.128952   -0.750664 C.ar      1 <1>         0.204100 
      7 C           3.251896   -0.800222   -1.452102 C.2       1 <1>         0.355200 
      8 O           3.671026    0.343020   -1.377708 O.2       1 <1>        -0.434700 
      9 C           4.006129   -1.866710   -2.177575 C.ar      1 <1>         0.072400 
     10 C           5.345576   -1.604470   -2.511818 C.ar      1 <1>        -0.151800 
     11 C           6.092606   -2.543672   -3.213979 C.ar      1 <1>        -0.133500 
     12 C           5.506442   -3.751854   -3.606161 C.ar      1 <1>        -0.117300 
     13 C           4.171825   -4.014760   -3.293882 C.ar      1 <1>        -0.135000 
     14 C           3.423616   -3.078960   -2.579586 C.ar      1 <1>        -0.174300 
     15 C           1.838448   -2.209757    0.084670 C.ar      1 <1>        -0.241100 
     16 C           0.634903   -2.412907    0.861315 C.ar      1 <1>         0.611000 
     17 O           0.384639   -3.305347    1.657018 O.2       1 <1>        -0.517100 
     18 N          -0.336812   -1.403677    0.606611 N.ar      1 <1>        -0.642600 
     19 H          -4.505531   -1.173837    0.286186 H         1 <1>         0.165400 
     20 H          -2.991343   -1.810356   -0.377379 H         1 <1>         0.163800 
     21 H          -3.926210   -0.629424   -1.301615 H         1 <1>         0.177800 
     22 H          -2.599347    0.013716    1.423115 H         1 <1>         0.180900 
     23 H          -3.511848    1.128554    0.435261 H         1 <1>         0.201200 
     24 H           5.775789   -0.655532   -2.208366 H         1 <1>         0.166000 
     25 H           7.130564   -2.337151   -3.460114 H         1 <1>         0.141200 
     26 H           6.089384   -4.484588   -4.157720 H         1 <1>         0.140500 
     27 H           3.711664   -4.947716   -3.607210 H         1 <1>         0.140200 
     28 H           2.383865   -3.285543   -2.348762 H         1 <1>         0.148400 
     29 H           2.641907   -2.924470    0.212256 H         1 <1>         0.169400 
     30 H          -1.190349   -1.503944    1.142979 H         1 <1>         0.351500 
@<TRIPOS>BOND
     1   16   17 2    
     2   15   29 1    
     3    7    8 2    
     4   10   24 1    
     5   16   15 ar   
     6   18   16 ar   
     7    6   15 ar   
     8   18   30 1    
     9    2   22 1    
    10    4   18 ar   
    11    6    7 1    
    12    7    9 1    
    13    5    6 ar   
    14    9   10 ar   
    15   10   11 ar   
    16   11   25 1    
    17    4    5 ar   
    18    3    4 1    
    19    9   14 ar   
    20   11   12 ar   
    21    3    2 1    
    22    2   23 1    
    23    2    1 1    
    24   14   28 1    
    25   14   13 ar   
    26   12   26 1    
    27   12   13 ar   
    28   13   27 1    
    29    1   19 1    
    30    1   20 1    
    31    1   21 1    
@<TRIPOS>SUBSTRUCTURE
     1 ****       24 TEMP              0 ****  ****    0 ROOT 
