#	Name:			LJ-2007-JMC-1778-3H
#	Creating user name:	Administrator
#	Creation time:		Sun Jul 05 16:55:55 2020

#	Modifying user name:	Administrator
#	Modification time:	Sun Jul 05 16:57:59 2020

@<TRIPOS>MOLECULE
LJ-2007-JMC-1778-3H
   42    44     1     0     0
SMALL
MULLIKEN_CHARGES
INVALID_CHARGES
Gaussian 16 #p B3LYP/6-31G* opt
@<TRIPOS>ATOM
      1 C           2.924993   -3.273710    0.274514 C.3       1 <1>        -0.545800 
      2 C           1.858652   -2.230583    0.077894 C.ar      1 <1>         0.072300 
      3 C           1.947253   -1.137179   -0.750193 C.ar      1 <1>         0.236000 
      4 C           3.176136   -0.824586   -1.620618 C.3       1 <1>        -0.301300 
      5 C           4.412566   -0.795461   -0.827193 C.1       1 <1>         0.371900 
      6 N           5.390105   -0.757702   -0.202208 N.1       1 <1>        -0.495300 
      7 C           3.272236   -1.723538   -2.864103 C.ar      1 <1>         0.151400 
      8 C           2.198119   -1.719419   -3.764915 C.ar      1 <1>        -0.168000 
      9 C           2.240940   -2.504471   -4.915140 C.ar      1 <1>        -0.133600 
     10 C           3.357246   -3.301711   -5.181530 C.ar      1 <1>        -0.122500 
     11 C           4.429677   -3.304001   -4.291157 C.ar      1 <1>        -0.136100 
     12 C           4.389609   -2.517555   -3.136458 C.ar      1 <1>        -0.188000 
     13 N           0.950002   -0.205870   -0.925212 N.ar      1 <1>        -0.531600 
     14 C          -0.151838   -0.359093   -0.246792 C.ar      1 <1>         0.331900 
     15 S          -1.412322    0.856348   -0.534345 S.3       1 <1>         0.211400 
     16 C          -2.795225    0.390700    0.588795 C.3       1 <1>        -0.304800 
     17 C          -4.048408    1.203877    0.201678 C.3       1 <1>        -0.283600 
     18 C          -4.972362    1.093622    1.441910 C.3       1 <1>        -0.278800 
     19 C          -4.055191    0.676304    2.631144 C.3       1 <1>        -0.276900 
     20 C          -2.613836    0.723234    2.080922 C.3       1 <1>        -0.273900 
     21 N          -0.332958   -1.392983    0.615240 N.ar      1 <1>        -0.648100 
     22 C           0.635390   -2.402157    0.851071 C.ar      1 <1>         0.574300 
     23 O           0.377477   -3.296013    1.646611 O.2       1 <1>        -0.519400 
     24 H           3.688639   -2.938225    0.986881 H         1 <1>         0.189300 
     25 H           3.432333   -3.519443   -0.662235 H         1 <1>         0.166900 
     26 H           2.468320   -4.179511    0.679922 H         1 <1>         0.188200 
     27 H           3.012500    0.203625   -1.965955 H         1 <1>         0.224100 
     28 H           1.330709   -1.097004   -3.561523 H         1 <1>         0.152200 
     29 H           1.402445   -2.490912   -5.606394 H         1 <1>         0.135400 
     30 H           3.390386   -3.912889   -6.079283 H         1 <1>         0.134100 
     31 H           5.304709   -3.916542   -4.490494 H         1 <1>         0.138500 
     32 H           5.234584   -2.517400   -2.454006 H         1 <1>         0.158300 
     33 H          -3.013124   -0.676162    0.447813 H         1 <1>         0.169500 
     34 H          -3.761862    2.249567    0.033127 H         1 <1>         0.163100 
     35 H          -4.511698    0.839986   -0.719779 H         1 <1>         0.162300 
     36 H          -5.753419    0.344614    1.276671 H         1 <1>         0.150800 
     37 H          -5.481863    2.043035    1.632263 H         1 <1>         0.153200 
     38 H          -4.174421    1.327388    3.502362 H         1 <1>         0.154500 
     39 H          -4.299354   -0.339932    2.960520 H         1 <1>         0.148600 
     40 H          -2.196447    1.733543    2.165649 H         1 <1>         0.165000 
     41 H          -1.932895    0.048212    2.610182 H         1 <1>         0.150700 
     42 H          -1.183506   -1.499276    1.154489 H         1 <1>         0.353700 
@<TRIPOS>BOND
     1    5    6 3    
     2    4   27 1    
     3    4    5 1    
     4   20   40 1    
     5    3    4 1    
     6    4    7 1    
     7   17   34 1    
     8    3   13 ar   
     9   13   14 ar   
    10   14   15 1    
    11   15   16 1    
    12   12   32 1    
    13    2    3 ar   
    14   20   41 1    
    15   16   20 1    
    16   20   19 1    
    17    7   12 ar   
    18    7    8 ar   
    19   19   38 1    
    20   18   37 1    
    21   14   21 ar   
    22   12   11 ar   
    23   16   17 1    
    24   17   18 1    
    25   17   35 1    
    26    8   28 1    
    27   16   33 1    
    28    8    9 ar   
    29   18   19 1    
    30   19   39 1    
    31   18   36 1    
    32    1   24 1    
    33    2    1 1    
    34    2   22 ar   
    35   21   42 1    
    36   21   22 ar   
    37   11   31 1    
    38   11   10 ar   
    39    9   10 ar   
    40    9   29 1    
    41    1   25 1    
    42    1   26 1    
    43   22   23 2    
    44   10   30 1    
@<TRIPOS>SUBSTRUCTURE
     1 ****       34 TEMP              0 ****  ****    0 ROOT 
