#	Name:			LJ-2007-JMC-1778-3L
#	Creating user name:	Administrator
#	Creation time:		Sun Jul 05 16:55:55 2020

#	Modifying user name:	Administrator
#	Modification time:	Sun Jul 05 16:57:59 2020

@<TRIPOS>MOLECULE
LJ-2007-JMC-1778-3L
   51    54     1     0     0
SMALL
MULLIKEN_CHARGES
INVALID_CHARGES
Gaussian 16 #p B3LYP/6-31G* opt
@<TRIPOS>ATOM
      1 C           2.691671   -4.595244   -0.332695 C.3       1 <1>        -0.455300 
      2 C           2.930229   -3.254645    0.387130 C.3       1 <1>        -0.338600 
      3 C           1.864524   -2.221329    0.107274 C.ar      1 <1>         0.056200 
      4 C           1.964782   -1.162585   -0.761551 C.ar      1 <1>         0.233200 
      5 C           3.239721   -0.923870   -1.602136 C.3       1 <1>        -0.330900 
      6 C           4.224767   -0.227206   -0.757382 C.1       1 <1>         0.379300 
      7 N           4.993897    0.307494   -0.071419 N.1       1 <1>        -0.487200 
      8 C           2.993670   -0.194393   -2.926074 C.ar      1 <1>         0.131700 
      9 C           3.418990    1.103969   -3.111276 C.ar      1 <1>        -0.200000 
     10 C           3.215652    1.778458   -4.338780 C.ar      1 <1>        -0.143800 
     11 C           2.586499    1.142719   -5.381014 C.ar      1 <1>        -0.185800 
     12 C           2.133008   -0.196081   -5.239855 C.ar      1 <1>         0.130600 
     13 C           1.489177   -0.869836   -6.311815 C.ar      1 <1>        -0.194600 
     14 C           1.051772   -2.167268   -6.176481 C.ar      1 <1>        -0.130900 
     15 C           1.239712   -2.847086   -4.951350 C.ar      1 <1>        -0.140700 
     16 C           1.860753   -2.222268   -3.891643 C.ar      1 <1>        -0.198900 
     17 C           2.332113   -0.884186   -3.995250 C.ar      1 <1>         0.095800 
     18 N           0.992011   -0.213359   -0.950062 N.ar      1 <1>        -0.508400 
     19 C          -0.117454   -0.340806   -0.283659 C.ar      1 <1>         0.332400 
     20 S          -1.462606    0.801797   -0.448039 S.3       1 <1>         0.151800 
     21 C          -0.804950    1.971293   -1.710219 C.3       1 <1>        -0.262200 
     22 C           0.152796    3.048716   -1.186933 C.3       1 <1>        -0.260700 
     23 C           0.172299    4.051805   -2.355126 C.3       1 <1>        -0.283000 
     24 C          -1.276389    4.044488   -2.923077 C.3       1 <1>        -0.276400 
     25 C          -1.960086    2.768554   -2.350709 C.3       1 <1>        -0.283900 
     26 N          -0.333537   -1.372944    0.580692 N.ar      1 <1>        -0.652800 
     27 C           0.616813   -2.381851    0.848973 C.ar      1 <1>         0.588300 
     28 O           0.347120   -3.276452    1.640646 O.2       1 <1>        -0.521100 
     29 H           1.717593   -5.007635   -0.054537 H         1 <1>         0.177100 
     30 H           2.720415   -4.482105   -1.423230 H         1 <1>         0.142400 
     31 H           3.462318   -5.321464   -0.051793 H         1 <1>         0.152500 
     32 H           3.922514   -2.863777    0.141448 H         1 <1>         0.150100 
     33 H           2.928061   -3.440222    1.466855 H         1 <1>         0.179000 
     34 H           3.679348   -1.902022   -1.829633 H         1 <1>         0.204700 
     35 H           3.930366    1.622150   -2.306174 H         1 <1>         0.158600 
     36 H           3.571927    2.798772   -4.449068 H         1 <1>         0.138600 
     37 H           2.432718    1.650339   -6.330225 H         1 <1>         0.133400 
     38 H           1.348580   -0.335904   -7.248701 H         1 <1>         0.133800 
     39 H           0.561744   -2.670516   -7.005366 H         1 <1>         0.135100 
     40 H           0.888979   -3.869706   -4.843192 H         1 <1>         0.135400 
     41 H           1.972656   -2.763215   -2.958321 H         1 <1>         0.144500 
     42 H          -0.294480    1.353255   -2.453398 H         1 <1>         0.205800 
     43 H          -0.266884    3.511581   -0.284629 H         1 <1>         0.145500 
     44 H           1.136401    2.643251   -0.938642 H         1 <1>         0.169000 
     45 H           0.878437    3.706104   -3.119131 H         1 <1>         0.148800 
     46 H           0.497236    5.049561   -2.043062 H         1 <1>         0.144100 
     47 H          -1.826828    4.940333   -2.618408 H         1 <1>         0.145800 
     48 H          -1.270714    4.035314   -4.017559 H         1 <1>         0.145600 
     49 H          -2.489633    2.183935   -3.108726 H         1 <1>         0.156000 
     50 H          -2.695534    3.046195   -1.585395 H         1 <1>         0.153300 
     51 H          -1.210896   -1.462615    1.084096 H         1 <1>         0.356700 
@<TRIPOS>BOND
     1   14   39 1    
     2   15   40 1    
     3   15   14 ar   
     4   13   14 ar   
     5   16   15 ar   
     6   25   49 1    
     7   13   38 1    
     8   12   13 ar   
     9   26   51 1    
    10   25   50 1    
    11    1   29 1    
    12   16   41 1    
    13   17   16 ar   
    14   21   25 1    
    15   25   24 1    
    16   19   20 1    
    17   20   21 1    
    18   27   28 2    
    19   27   26 ar   
    20   19   26 ar   
    21    1   30 1    
    22   21   42 1    
    23    3   27 ar   
    24   24   48 1    
    25   18   19 ar   
    26    1   31 1    
    27    2    1 1    
    28   21   22 1    
    29   17   12 ar   
    30   12   11 ar   
    31   24   47 1    
    32   23   24 1    
    33    8   17 ar   
    34    4   18 ar   
    35    4    3 ar   
    36    3    2 1    
    37   11   37 1    
    38    5    4 1    
    39   11   10 ar   
    40    2   33 1    
    41    2   32 1    
    42   22   23 1    
    43   22   43 1    
    44   22   44 1    
    45    8    5 1    
    46    8    9 ar   
    47    5   34 1    
    48   23   45 1    
    49   23   46 1    
    50    5    6 1    
    51   10    9 ar   
    52   10   36 1    
    53    9   35 1    
    54    6    7 3    
@<TRIPOS>SUBSTRUCTURE
     1 ****       39 TEMP              0 ****  ****    0 ROOT 
