#	Name:			LJ-2007-JMC-1778-3M
#	Creating user name:	Administrator
#	Creation time:		Sun Jul 05 16:55:55 2020

#	Modifying user name:	Administrator
#	Modification time:	Sun Jul 05 16:57:59 2020

@<TRIPOS>MOLECULE
LJ-2007-JMC-1778-3M
   45    47     1     0     0
SMALL
MULLIKEN_CHARGES
INVALID_CHARGES
Gaussian 16 #p B3LYP/6-31G* opt
@<TRIPOS>ATOM
      1 C          -0.026984    3.338063    0.866938 C.2       1 <1>        -0.324800 
      2 C           0.019150    3.231603   -0.458768 C.2       1 <1>        -0.044000 
      3 C          -0.621899    2.183141   -1.330313 C.3       1 <1>        -0.482900 
      4 S          -1.468880    0.800970   -0.462252 S.3       1 <1>         0.148700 
      5 C          -0.116269   -0.339647   -0.277403 C.ar      1 <1>         0.332600 
      6 N           0.987923   -0.216736   -0.948834 N.ar      1 <1>        -0.500200 
      7 C           1.975828   -1.151098   -0.745652 C.ar      1 <1>         0.219900 
      8 C           3.252804   -0.903477   -1.553632 C.3       1 <1>        -0.333200 
      9 C           3.450054    0.537655   -1.801144 C.1       1 <1>         0.392900 
     10 N           3.652147    1.660098   -2.016550 N.1       1 <1>        -0.483500 
     11 C           3.317445   -1.685134   -2.879759 C.ar      1 <1>         0.104600 
     12 C           2.156057   -2.063321   -3.520749 C.ar      1 <1>        -0.182200 
     13 C           2.189350   -2.795761   -4.729858 C.ar      1 <1>        -0.136100 
     14 C           3.392800   -3.147553   -5.290531 C.ar      1 <1>        -0.182700 
     15 C           4.615405   -2.766869   -4.676643 C.ar      1 <1>         0.136800 
     16 C           5.865566   -3.116082   -5.253176 C.ar      1 <1>        -0.193100 
     17 C           7.050050   -2.731877   -4.668623 C.ar      1 <1>        -0.130100 
     18 C           7.030647   -1.971194   -3.477131 C.ar      1 <1>        -0.133600 
     19 C           5.835678   -1.619927   -2.888222 C.ar      1 <1>        -0.194200 
     20 C           4.590196   -2.010443   -3.455535 C.ar      1 <1>         0.092400 
     21 C           1.854599   -2.235641    0.086619 C.ar      1 <1>         0.059400 
     22 C           2.909420   -3.288787    0.322582 C.3       1 <1>        -0.341400 
     23 C           3.719836   -3.050883    1.610903 C.3       1 <1>        -0.448100 
     24 C           0.616015   -2.386935    0.843670 C.ar      1 <1>         0.584200 
     25 O           0.350412   -3.275118    1.643261 O.2       1 <1>        -0.519900 
     26 N          -0.327974   -1.363325    0.594864 N.ar      1 <1>        -0.649700 
     27 H          -0.565954    2.627686    1.487443 H         1 <1>         0.156000 
     28 H           0.485232    4.147632    1.378244 H         1 <1>         0.147100 
     29 H           0.581556    3.967647   -1.034691 H         1 <1>         0.154200 
     30 H          -1.395971    2.624544   -1.969419 H         1 <1>         0.190500 
     31 H           0.125133    1.721893   -1.983100 H         1 <1>         0.237900 
     32 H           4.093141   -1.225252   -0.930294 H         1 <1>         0.201200 
     33 H           1.195188   -1.795645   -3.094337 H         1 <1>         0.148100 
     34 H           1.255257   -3.080366   -5.205758 H         1 <1>         0.137700 
     35 H           3.427974   -3.717687   -6.215597 H         1 <1>         0.135700 
     36 H           5.867263   -3.693477   -6.174637 H         1 <1>         0.135100 
     37 H           7.999193   -3.003962   -5.121658 H         1 <1>         0.135900 
     38 H           7.966440   -1.654995   -3.024773 H         1 <1>         0.137400 
     39 H           5.857395   -1.012790   -1.989469 H         1 <1>         0.139900 
     40 H           3.579523   -3.359604   -0.540063 H         1 <1>         0.151800 
     41 H           2.400203   -4.255021    0.406718 H         1 <1>         0.175400 
     42 H           4.454180   -3.851052    1.754669 H         1 <1>         0.151000 
     43 H           3.056074   -3.037386    2.480337 H         1 <1>         0.175200 
     44 H           4.259569   -2.096908    1.577573 H         1 <1>         0.141200 
     45 H          -1.183523   -1.422587    1.138652 H         1 <1>         0.357000 
@<TRIPOS>BOND
     1   18   38 1    
     2    1   28 1    
     3   23   44 1    
     4   19   39 1    
     5   23   42 1    
     6   23   43 1    
     7   22   23 1    
     8    9   10 3    
     9   19   18 ar   
    10   18   17 ar   
    11    1   27 1    
    12    2    1 2    
    13    8   32 1    
    14   20   19 ar   
    15    8    9 1    
    16    2   29 1    
    17   17   37 1    
    18    3    2 1    
    19   16   17 ar   
    20    7    8 1    
    21    8   11 1    
    22   22   40 1    
    23   21   22 1    
    24   22   41 1    
    25    7   21 ar   
    26    6    7 ar   
    27   24   21 ar   
    28   11   20 ar   
    29   20   15 ar   
    30    5    6 ar   
    31   11   12 ar   
    32   24   25 2    
    33   26   24 ar   
    34    3   31 1    
    35    4    3 1    
    36    3   30 1    
    37   15   16 ar   
    38   16   36 1    
    39    5   26 ar   
    40    5    4 1    
    41   26   45 1    
    42   15   14 ar   
    43   12   33 1    
    44   12   13 ar   
    45   14   13 ar   
    46   14   35 1    
    47   13   34 1    
@<TRIPOS>SUBSTRUCTURE
     1 ****       38 TEMP              0 ****  ****    0 ROOT 
