#	Name:			LJ-2007-JMC-1778-3C
#	Creating user name:	Administrator
#	Creation time:		Sun Jul 05 16:55:55 2020

#	Modifying user name:	Administrator
#	Modification time:	Sun Jul 05 16:57:59 2020

@<TRIPOS>MOLECULE
LJ-2007-JMC-1778-3C
   48    51     1     0     0
SMALL
MULLIKEN_CHARGES
INVALID_CHARGES
Gaussian 16 #p B3LYP/6-31G* opt
@<TRIPOS>ATOM
      1 C           2.970861   -3.212198    0.320848 C.3       1 <1>        -0.555800 
      2 C           1.866852   -2.211588    0.098193 C.ar      1 <1>         0.070300 
      3 C           1.938485   -1.132848   -0.753190 C.ar      1 <1>         0.245200 
      4 C           3.211547   -0.896064   -1.591082 C.3       1 <1>        -0.355800 
      5 C           4.254222   -0.271325   -0.753326 C.1       1 <1>         0.378100 
      6 N           5.083137    0.171935   -0.071210 N.1       1 <1>        -0.478700 
      7 C           2.997068   -0.205674   -2.942046 C.ar      1 <1>         0.136800 
      8 C           2.989655   -1.027431   -4.053041 C.ar      1 <1>        -0.198700 
      9 C           2.811313   -0.516795   -5.357962 C.ar      1 <1>        -0.132100 
     10 C           2.658240    0.834827   -5.544977 C.ar      1 <1>        -0.184000 
     11 C           2.663884    1.724074   -4.438184 C.ar      1 <1>         0.133800 
     12 C           2.508401    3.123433   -4.631654 C.ar      1 <1>        -0.196000 
     13 C           2.505797    3.990636   -3.565155 C.ar      1 <1>        -0.128900 
     14 C           2.652236    3.487145   -2.251804 C.ar      1 <1>        -0.144600 
     15 C           2.802401    2.136979   -2.028362 C.ar      1 <1>        -0.165100 
     16 C           2.823508    1.208547   -3.106119 C.ar      1 <1>         0.106200 
     17 N           0.940626   -0.217106   -0.937157 N.ar      1 <1>        -0.504400 
     18 C          -0.160054   -0.370622   -0.257605 C.ar      1 <1>         0.322200 
     19 S          -1.394063    0.877513   -0.521982 S.3       1 <1>         0.209100 
     20 C          -2.887217    0.386736    0.446545 C.3       1 <1>        -0.306800 
     21 C          -2.749943    0.285768    2.002602 C.3       1 <1>        -0.291300 
     22 C          -3.506298   -1.007874    2.398449 C.3       1 <1>        -0.298900 
     23 C          -4.457037   -1.284594    1.217694 C.3       1 <1>        -0.271500 
     24 C          -3.623297   -0.895125   -0.014448 C.3       1 <1>        -0.276900 
     25 N          -0.337707   -1.407147    0.604432 N.ar      1 <1>        -0.654000 
     26 C           0.638216   -2.404407    0.854094 C.ar      1 <1>         0.573400 
     27 O           0.379299   -3.301325    1.647489 O.2       1 <1>        -0.526000 
     28 H           2.668356   -3.907660    1.106180 H         1 <1>         0.200100 
     29 H           3.905593   -2.728219    0.625886 H         1 <1>         0.183000 
     30 H           3.180453   -3.799910   -0.583237 H         1 <1>         0.160600 
     31 H           3.611587   -1.890176   -1.822165 H         1 <1>         0.202900 
     32 H           3.127780   -2.098794   -3.925609 H         1 <1>         0.127600 
     33 H           2.808997   -1.197601   -6.204338 H         1 <1>         0.132600 
     34 H           2.532172    1.245515   -6.543906 H         1 <1>         0.132100 
     35 H           2.390203    3.495003   -5.646885 H         1 <1>         0.129100 
     36 H           2.388153    5.058764   -3.726295 H         1 <1>         0.130200 
     37 H           2.642405    4.171838   -1.408363 H         1 <1>         0.133400 
     38 H           2.895904    1.781257   -1.010702 H         1 <1>         0.148400 
     39 H          -3.527114    1.245137    0.213821 H         1 <1>         0.189200 
     40 H          -1.709200    0.284890    2.338987 H         1 <1>         0.166800 
     41 H          -3.214871    1.164413    2.460786 H         1 <1>         0.162600 
     42 H          -2.808138   -1.849455    2.514060 H         1 <1>         0.160700 
     43 H          -4.027824   -0.907928    3.355277 H         1 <1>         0.155800 
     44 H          -4.806866   -2.321414    1.183399 H         1 <1>         0.154800 
     45 H          -5.343719   -0.640907    1.288920 H         1 <1>         0.145000 
     46 H          -2.915503   -1.696623   -0.257475 H         1 <1>         0.154200 
     47 H          -4.218758   -0.716101   -0.914555 H         1 <1>         0.160800 
     48 H          -1.191234   -1.523594    1.135583 H         1 <1>         0.364500 
@<TRIPOS>BOND
     1   14   37 1    
     2    5    6 3    
     3   15   14 ar   
     4   14   13 ar   
     5   15   38 1    
     6   21   41 1    
     7   13   36 1    
     8   21   40 1    
     9   16   15 ar   
    10    4    5 1    
    11   12   13 ar   
    12   21   22 1    
    13   20   21 1    
    14   22   43 1    
    15    1   29 1    
    16   22   42 1    
    17   22   23 1    
    18   18   19 1    
    19   19   20 1    
    20   20   39 1    
    21    7   16 ar   
    22   16   11 ar   
    23   17   18 ar   
    24    3   17 ar   
    25   25   18 ar   
    26    3    4 1    
    27    4   31 1    
    28    4    7 1    
    29   12   35 1    
    30   11   12 ar   
    31    2    3 ar   
    32   20   24 1    
    33   25   48 1    
    34   26   25 ar   
    35    2   26 ar   
    36    2    1 1    
    37    1   28 1    
    38   26   27 2    
    39    1   30 1    
    40    7    8 ar   
    41   11   10 ar   
    42   23   45 1    
    43   23   24 1    
    44   23   44 1    
    45   24   46 1    
    46   24   47 1    
    47    8   32 1    
    48    8    9 ar   
    49   10   34 1    
    50   10    9 ar   
    51    9   33 1    
@<TRIPOS>SUBSTRUCTURE
     1 ****        6 TEMP              0 ****  ****    0 ROOT 
