#	Name:			LJ-2007-JMC-1778-3J
#	Creating user name:	Administrator
#	Creation time:		Sun Jul 05 16:55:55 2020

#	Modifying user name:	Administrator
#	Modification time:	Sun Jul 05 16:57:59 2020

@<TRIPOS>MOLECULE
LJ-2007-JMC-1778-3J
   44    46     1     0     0
SMALL
MULLIKEN_CHARGES
INVALID_CHARGES
Gaussian 16 #p B3LYP/6-31G* opt
@<TRIPOS>ATOM
      1 C           0.207235    3.062166   -0.823386 C.3       1 <1>        -0.442700 
      2 C          -0.705527    2.077182   -1.546979 C.3       1 <1>        -0.414600 
      3 S          -1.459378    0.807652   -0.444162 S.3       1 <1>         0.146200 
      4 C          -0.119515   -0.344339   -0.285888 C.ar      1 <1>         0.335000 
      5 N           0.989323   -0.214289   -0.948432 N.ar      1 <1>        -0.508600 
      6 C           1.969699   -1.158735   -0.756271 C.ar      1 <1>         0.251900 
      7 C           3.240248   -0.870924   -1.579039 C.3       1 <1>        -0.323300 
      8 C           4.001848    0.174191   -0.874374 C.1       1 <1>         0.384600 
      9 N           4.591746    0.987529   -0.292324 N.1       1 <1>        -0.492700 
     10 C           2.951303   -0.498481   -3.038012 C.ar      1 <1>         0.123600 
     11 C           3.069439    0.805147   -3.472026 C.ar      1 <1>        -0.195500 
     12 C           2.811081    1.160049   -4.816583 C.ar      1 <1>        -0.143600 
     13 C           2.435364    0.200603   -5.724426 C.ar      1 <1>        -0.183100 
     14 C           2.300733   -1.155770   -5.325891 C.ar      1 <1>         0.134000 
     15 C           1.919233   -2.158767   -6.256479 C.ar      1 <1>        -0.194200 
     16 C           1.789421   -3.473451   -5.872497 C.ar      1 <1>        -0.130500 
     17 C           2.036266   -3.839530   -4.529686 C.ar      1 <1>        -0.140100 
     18 C           2.408235   -2.891460   -3.601654 C.ar      1 <1>        -0.193600 
     19 C           2.557472   -1.522844   -3.961044 C.ar      1 <1>         0.091500 
     20 C           1.864092   -2.225672    0.101284 C.ar      1 <1>         0.041900 
     21 C           2.931207   -3.246715    0.416346 C.3       1 <1>        -0.339000 
     22 C           3.747635   -2.884222    1.672198 C.3       1 <1>        -0.451600 
     23 C           0.615078   -2.382254    0.846835 C.ar      1 <1>         0.589400 
     24 O           0.352028   -3.269367    1.648515 O.2       1 <1>        -0.519300 
     25 N          -0.339673   -1.380527    0.572392 N.ar      1 <1>        -0.651000 
     26 H          -0.322338    3.586765   -0.022120 H         1 <1>         0.160100 
     27 H           0.574671    3.809786   -1.537206 H         1 <1>         0.155700 
     28 H           1.072381    2.548477   -0.396307 H         1 <1>         0.186900 
     29 H          -1.572322    2.576297   -1.991355 H         1 <1>         0.180500 
     30 H          -0.173070    1.536725   -2.332191 H         1 <1>         0.217300 
     31 H           3.875709   -1.761632   -1.567641 H         1 <1>         0.197700 
     32 H           3.376040    1.577166   -2.773446 H         1 <1>         0.157400 
     33 H           2.918934    2.196716   -5.122769 H         1 <1>         0.136800 
     34 H           2.239709    0.463053   -6.761223 H         1 <1>         0.133800 
     35 H           1.730703   -1.864174   -7.286081 H         1 <1>         0.134100 
     36 H           1.497118   -4.230048   -6.595179 H         1 <1>         0.135100 
     37 H           1.929139   -4.877186   -4.225699 H         1 <1>         0.136000 
     38 H           2.573755   -3.202366   -2.576261 H         1 <1>         0.140100 
     39 H           3.609723   -3.384433   -0.432929 H         1 <1>         0.138700 
     40 H           2.432950   -4.206827    0.586158 H         1 <1>         0.176700 
     41 H           4.273338   -1.931455    1.546510 H         1 <1>         0.158900 
     42 H           3.088592   -2.801808    2.541899 H         1 <1>         0.172100 
     43 H           4.490926   -3.661229    1.882175 H         1 <1>         0.149700 
     44 H          -1.210674   -1.461725    1.087984 H         1 <1>         0.357200 
@<TRIPOS>BOND
     1   16   36 1    
     2   25   44 1    
     3   17   37 1    
     4   17   16 ar   
     5   15   16 ar   
     6    4    3 1    
     7    3    2 1    
     8   18   17 ar   
     9   15   35 1    
    10   23   24 2    
    11   23   25 ar   
    12    4   25 ar   
    13   14   15 ar   
    14    2   29 1    
    15   20   23 ar   
    16    5    4 ar   
    17   18   38 1    
    18   19   18 ar   
    19    2   30 1    
    20    2    1 1    
    21   19   14 ar   
    22   14   13 ar   
    23   21   40 1    
    24    6    5 ar   
    25    6   20 ar   
    26   20   21 1    
    27   10   19 ar   
    28   13   34 1    
    29   13   12 ar   
    30    7    6 1    
    31   21   39 1    
    32   21   22 1    
    33    1   26 1    
    34    1   27 1    
    35    1   28 1    
    36   10    7 1    
    37   10   11 ar   
    38   12   11 ar   
    39   12   33 1    
    40   22   42 1    
    41    7   31 1    
    42    7    8 1    
    43   11   32 1    
    44   22   43 1    
    45   22   41 1    
    46    8    9 3    
@<TRIPOS>SUBSTRUCTURE
     1 ****       36 TEMP              0 ****  ****    0 ROOT 
