#	Name:			LJ-2007-JMC-1778-3Q
#	Creating user name:	Administrator
#	Creation time:		Sun Jul 05 16:55:55 2020

#	Modifying user name:	Administrator
#	Modification time:	Sun Jul 05 16:57:59 2020

@<TRIPOS>MOLECULE
LJ-2007-JMC-1778-3Q
   41    42     1     0     0
SMALL
MULLIKEN_CHARGES
INVALID_CHARGES
Gaussian 16 #p B3LYP/6-31G* opt
@<TRIPOS>ATOM
      1 C           3.589952   -3.104793    1.763793 C.3       1 <1>        -0.454900 
      2 C           2.919219   -3.273344    0.386772 C.3       1 <1>        -0.331600 
      3 C           1.868605   -2.226337    0.110021 C.ar      1 <1>         0.068200 
      4 C           1.978592   -1.168682   -0.757244 C.ar      1 <1>         0.230800 
      5 C           3.225378   -0.890744   -1.617975 C.3       1 <1>        -0.305000 
      6 C           3.459503   -1.978847   -2.578912 C.1       1 <1>         0.368200 
      7 N           3.641937   -2.824377   -3.353425 N.1       1 <1>        -0.489500 
      8 C           4.476223   -0.515017   -0.809221 C.ar      1 <1>         0.157100 
      9 C           5.709467   -1.145079   -0.993932 C.ar      1 <1>        -0.186400 
     10 C           6.824451   -0.742264   -0.254005 C.ar      1 <1>        -0.134600 
     11 C           6.717901    0.293358    0.672922 C.ar      1 <1>        -0.122700 
     12 C           5.487979    0.930546    0.856317 C.ar      1 <1>        -0.134400 
     13 C           4.374972    0.530134    0.119392 C.ar      1 <1>        -0.169600 
     14 N           0.999311   -0.214462   -0.957241 N.ar      1 <1>        -0.533000 
     15 C          -0.117858   -0.341069   -0.300433 C.ar      1 <1>         0.340500 
     16 S          -1.476628    0.795395   -0.417877 S.3       1 <1>         0.135500 
     17 C          -1.077432    1.935450   -1.838119 C.3       1 <1>        -0.238600 
     18 C           0.093903    2.873034   -1.536355 C.3       1 <1>        -0.445500 
     19 C          -0.953134    1.196398   -3.172186 C.3       1 <1>        -0.447000 
     20 N          -0.334921   -1.372283    0.563775 N.ar      1 <1>        -0.650000 
     21 C           0.617171   -2.376151    0.849341 C.ar      1 <1>         0.586800 
     22 O           0.337381   -3.263941    1.643930 O.2       1 <1>        -0.516100 
     23 H           4.112137   -2.145278    1.835528 H         1 <1>         0.154600 
     24 H           2.844784   -3.161264    2.561908 H         1 <1>         0.172400 
     25 H           4.322275   -3.903787    1.924124 H         1 <1>         0.146400 
     26 H           3.679156   -3.272989   -0.397600 H         1 <1>         0.152600 
     27 H           2.428556   -4.253212    0.354763 H         1 <1>         0.171800 
     28 H           2.948196   -0.017463   -2.221518 H         1 <1>         0.220300 
     29 H           5.804649   -1.950588   -1.716228 H         1 <1>         0.158500 
     30 H           7.776249   -1.243647   -0.406487 H         1 <1>         0.140000 
     31 H           7.585515    0.604562    1.248125 H         1 <1>         0.136000 
     32 H           5.394456    1.741371    1.573625 H         1 <1>         0.137000 
     33 H           3.420874    1.029790    0.265879 H         1 <1>         0.143800 
     34 H          -2.005701    2.521373   -1.844795 H         1 <1>         0.179000 
     35 H           1.029502    2.314797   -1.466667 H         1 <1>         0.185700 
     36 H          -0.063454    3.417370   -0.600322 H         1 <1>         0.159400 
     37 H           0.185437    3.606290   -2.347376 H         1 <1>         0.152700 
     38 H          -0.072794    0.550375   -3.181661 H         1 <1>         0.185700 
     39 H          -1.839609    0.588076   -3.374745 H         1 <1>         0.162600 
     40 H          -0.850135    1.930883   -3.980540 H         1 <1>         0.154300 
     41 H          -1.222389   -1.473453    1.047050 H         1 <1>         0.358800 
@<TRIPOS>BOND
     1   12   32 1    
     2   11   31 1    
     3   12   11 ar   
     4   13   12 ar   
     5   18   36 1    
     6   10   11 ar   
     7   13   33 1    
     8    1   24 1    
     9    1   23 1    
    10    8   13 ar   
    11   20   41 1    
    12    1   25 1    
    13    2    1 1    
    14   18   35 1    
    15   18   37 1    
    16   17   18 1    
    17   15   16 1    
    18   16   17 1    
    19   21   22 2    
    20   21   20 ar   
    21   15   20 ar   
    22    3   21 ar   
    23   17   34 1    
    24   14   15 ar   
    25   10   30 1    
    26    9   10 ar   
    27   17   19 1    
    28    8    9 ar   
    29    5    8 1    
    30    4   14 ar   
    31    4    3 ar   
    32    3    2 1    
    33    4    5 1    
    34    2   27 1    
    35    2   26 1    
    36    9   29 1    
    37    5   28 1    
    38    5    6 1    
    39   19   38 1    
    40   19   40 1    
    41   19   39 1    
    42    6    7 3    
@<TRIPOS>SUBSTRUCTURE
     1 ****       41 TEMP              0 ****  ****    0 ROOT 
