#	Name:			LJ-2007-JMC-1778-4B
#	Creating user name:	Administrator
#	Creation time:		Sun Jul 05 16:55:56 2020

#	Modifying user name:	Administrator
#	Modification time:	Sun Jul 05 16:57:59 2020

@<TRIPOS>MOLECULE
LJ-2007-JMC-1778-4B
   43    46     1     0     0
SMALL
MULLIKEN_CHARGES
INVALID_CHARGES
Gaussian 16 #p B3LYP/6-31G* opt
@<TRIPOS>ATOM
      1 O           3.635211    0.356966   -1.411724 O.2       1 <1>        -0.438900 
      2 C           3.255819   -0.802830   -1.454676 C.2       1 <1>         0.361000 
      3 C           1.942345   -1.132728   -0.756243 C.ar      1 <1>         0.193600 
      4 C           1.833030   -2.216556    0.075339 C.ar      1 <1>        -0.237400 
      5 C           0.633677   -2.413063    0.859828 C.ar      1 <1>         0.611100 
      6 O           0.381965   -3.307765    1.653478 O.2       1 <1>        -0.519700 
      7 N          -0.330029   -1.394502    0.618504 N.ar      1 <1>        -0.647200 
      8 C          -0.140685   -0.358993   -0.247920 C.ar      1 <1>         0.331800 
      9 S          -1.406923    0.849013   -0.540390 S.3       1 <1>         0.221800 
     10 C          -2.799971    0.369326    0.563708 C.3       1 <1>        -0.306600 
     11 C          -2.642175    0.701821    2.058771 C.3       1 <1>        -0.274200 
     12 C          -4.090246    0.643115    2.589870 C.3       1 <1>        -0.276600 
     13 C          -4.994547    1.053969    1.388551 C.3       1 <1>        -0.278600 
     14 C          -4.054788    1.172796    0.161288 C.3       1 <1>        -0.283400 
     15 N           0.958275   -0.192936   -0.928323 N.ar      1 <1>        -0.492400 
     16 C           4.018098   -1.898444   -2.125835 C.ar      1 <1>         0.030700 
     17 C           3.307367   -2.969440   -2.651371 C.ar      1 <1>        -0.189600 
     18 C           3.943606   -4.003269   -3.368787 C.ar      1 <1>        -0.135800 
     19 C           5.307270   -3.974534   -3.539566 C.ar      1 <1>        -0.176300 
     20 C           6.088262   -2.911590   -3.013282 C.ar      1 <1>         0.131200 
     21 C           7.498316   -2.898711   -3.183734 C.ar      1 <1>        -0.196100 
     22 C           8.261403   -1.873450   -2.675878 C.ar      1 <1>        -0.127400 
     23 C           7.636186   -0.817681   -1.974657 C.ar      1 <1>        -0.137300 
     24 C           6.269486   -0.795003   -1.794069 C.ar      1 <1>        -0.182500 
     25 C           5.448402   -1.838262   -2.304245 C.ar      1 <1>         0.076500 
     26 H           2.630091   -2.940351    0.189792 H         1 <1>         0.168400 
     27 H          -1.183300   -1.489293    1.155773 H         1 <1>         0.353500 
     28 H          -3.007938   -0.699170    0.419217 H         1 <1>         0.168200 
     29 H          -1.963071    0.032175    2.597529 H         1 <1>         0.149500 
     30 H          -2.233899    1.715341    2.149809 H         1 <1>         0.165600 
     31 H          -4.330802   -0.375279    2.915334 H         1 <1>         0.147500 
     32 H          -4.226533    1.292593    3.459928 H         1 <1>         0.153500 
     33 H          -5.767180    0.298614    1.212225 H         1 <1>         0.149800 
     34 H          -5.514547    1.998874    1.572763 H         1 <1>         0.152600 
     35 H          -3.774283    2.220915   -0.002312 H         1 <1>         0.163600 
     36 H          -4.502559    0.806545   -0.766847 H         1 <1>         0.162100 
     37 H           2.230480   -3.005773   -2.527026 H         1 <1>         0.150200 
     38 H           3.351430   -4.816139   -3.778552 H         1 <1>         0.139600 
     39 H           5.811429   -4.769524   -4.084179 H         1 <1>         0.138900 
     40 H           7.963220   -3.720514   -3.723108 H         1 <1>         0.132500 
     41 H           9.339478   -1.872650   -2.810594 H         1 <1>         0.133700 
     42 H           8.240605   -0.008374   -1.573801 H         1 <1>         0.136100 
     43 H           5.804828    0.030247   -1.272796 H         1 <1>         0.177000 
@<TRIPOS>BOND
     1   14   36 1    
     2   18   38 1    
     3   18   19 ar   
     4   17   18 ar   
     5   19   39 1    
     6   17   37 1    
     7   14   35 1    
     8   14   13 1    
     9   10   14 1    
    10   20   19 ar   
    11   16   17 ar   
    12   13   33 1    
    13    9   10 1    
    14    8    9 1    
    15   10   28 1    
    16   13   34 1    
    17   13   12 1    
    18   20   21 ar   
    19   25   20 ar   
    20   10   11 1    
    21   15    8 ar   
    22    3   15 ar   
    23   21   40 1    
    24    2   16 1    
    25   16   25 ar   
    26    8    7 ar   
    27   21   22 ar   
    28    2    3 1    
    29    2    1 2    
    30   25   24 ar   
    31    3    4 ar   
    32    7   27 1    
    33    7    5 ar   
    34   22   41 1    
    35   22   23 ar   
    36   24   43 1    
    37   24   23 ar   
    38    4    5 ar   
    39    4   26 1    
    40   12   11 1    
    41   12   31 1    
    42   12   32 1    
    43   11   30 1    
    44   11   29 1    
    45   23   42 1    
    46    5    6 2    
@<TRIPOS>SUBSTRUCTURE
     1 ****       38 TEMP              0 ****  ****    0 ROOT 
