#	Name:			LJ-2007-JMC-1778-4K
#	Creating user name:	Administrator
#	Creation time:		Sun Jul 05 16:55:56 2020

#	Modifying user name:	Administrator
#	Modification time:	Sun Jul 05 16:57:59 2020

@<TRIPOS>MOLECULE
LJ-2007-JMC-1778-4K
   49    52     1     0     0
SMALL
MULLIKEN_CHARGES
INVALID_CHARGES
Gaussian 16 #p B3LYP/6-31G* opt
@<TRIPOS>ATOM
      1 C           3.707114   -3.018532    1.632131 C.3       1 <1>        -0.448200 
      2 C           2.940865   -3.258086    0.317160 C.3       1 <1>        -0.338500 
      3 C           1.860315   -2.231460    0.081169 C.ar      1 <1>         0.066700 
      4 C           1.945856   -1.141469   -0.754256 C.ar      1 <1>         0.121000 
      5 C           3.150735   -0.909173   -1.653058 C.2       1 <1>         0.370000 
      6 O           3.512848   -1.805327   -2.404009 O.2       1 <1>        -0.460300 
      7 C           3.865243    0.397983   -1.611085 C.ar      1 <1>         0.086200 
      8 C           4.906048    0.609027   -2.561712 C.ar      1 <1>        -0.162400 
      9 C           5.634971    1.770198   -2.553407 C.ar      1 <1>        -0.196400 
     10 C           5.379477    2.789453   -1.592904 C.ar      1 <1>         0.146800 
     11 C           6.116534    4.001121   -1.552821 C.ar      1 <1>        -0.193200 
     12 C           5.840308    4.963111   -0.605683 C.ar      1 <1>        -0.129800 
     13 C           4.812162    4.758567    0.346906 C.ar      1 <1>        -0.138400 
     14 C           4.078756    3.593725    0.333992 C.ar      1 <1>        -0.180000 
     15 C           4.338871    2.581779   -0.629682 C.ar      1 <1>         0.128600 
     16 C           3.597537    1.373719   -0.666315 C.ar      1 <1>        -0.235400 
     17 N           0.954626   -0.198052   -0.919987 N.ar      1 <1>        -0.504300 
     18 C          -0.152628   -0.363848   -0.258118 C.ar      1 <1>         0.323600 
     19 S          -1.410469    0.863895   -0.519901 S.3       1 <1>         0.224200 
     20 C          -2.808436    0.294237    0.558998 C.3       1 <1>        -0.546100 
     21 C          -3.956278    1.263531    0.413198 C.ar      1 <1>         0.141800 
     22 C          -4.917631    1.080143   -0.589131 C.ar      1 <1>        -0.158100 
     23 C          -5.975144    1.978600   -0.727954 C.ar      1 <1>        -0.128900 
     24 C          -6.080933    3.073383    0.132058 C.ar      1 <1>        -0.124200 
     25 C          -5.124483    3.266266    1.130512 C.ar      1 <1>        -0.128700 
     26 C          -4.067102    2.367295    1.268397 C.ar      1 <1>        -0.158700 
     27 N          -0.343942   -1.408615    0.593638 N.ar      1 <1>        -0.650900 
     28 C           0.635106   -2.400165    0.853057 C.ar      1 <1>         0.580300 
     29 O           0.382792   -3.287816    1.658671 O.2       1 <1>        -0.522500 
     30 H           4.221257   -2.050441    1.619905 H         1 <1>         0.139900 
     31 H           3.025383   -3.038350    2.487865 H         1 <1>         0.167300 
     32 H           4.461241   -3.799541    1.780096 H         1 <1>         0.147800 
     33 H           3.630451   -3.272171   -0.527848 H         1 <1>         0.175900 
     34 H           2.461510   -4.242454    0.366347 H         1 <1>         0.165500 
     35 H           5.100942   -0.175166   -3.285150 H         1 <1>         0.161600 
     36 H           6.425061    1.927310   -3.283950 H         1 <1>         0.135500 
     37 H           6.905699    4.158827   -2.284115 H         1 <1>         0.134900 
     38 H           6.412877    5.886433   -0.586290 H         1 <1>         0.135200 
     39 H           4.605057    5.526169    1.087325 H         1 <1>         0.134100 
     40 H           3.286701    3.431540    1.061152 H         1 <1>         0.135000 
     41 H           2.803727    1.231629    0.059117 H         1 <1>         0.149200 
     42 H          -2.466859    0.260430    1.598577 H         1 <1>         0.191100 
     43 H          -3.112633   -0.709061    0.243955 H         1 <1>         0.194000 
     44 H          -4.837210    0.229258   -1.261404 H         1 <1>         0.139200 
     45 H          -6.716798    1.822344   -1.506342 H         1 <1>         0.140600 
     46 H          -6.905948    3.772209    0.025464 H         1 <1>         0.139200 
     47 H          -5.201799    4.115442    1.803858 H         1 <1>         0.139600 
     48 H          -3.323213    2.520778    2.046688 H         1 <1>         0.135900 
     49 H          -1.204885   -1.531738    1.113517 H         1 <1>         0.354200 
@<TRIPOS>BOND
     1    1   31 1    
     2   13   39 1    
     3    1   30 1    
     4    1   32 1    
     5   14   40 1    
     6   26   48 1    
     7    2    1 1    
     8   14   13 ar   
     9   13   12 ar   
    10   25   47 1    
    11   15   14 ar   
    12   28   29 2    
    13   20   42 1    
    14   12   38 1    
    15   26   25 ar   
    16   21   26 ar   
    17   11   12 ar   
    18   25   24 ar   
    19   27   49 1    
    20   28   27 ar   
    21    3   28 ar   
    22   16   41 1    
    23   18   27 ar   
    24    2   34 1    
    25    3    2 1    
    26    2   33 1    
    27   16   15 ar   
    28   15   10 ar   
    29   20   21 1    
    30   20   43 1    
    31   19   20 1    
    32    4    3 ar   
    33    7   16 ar   
    34   21   22 ar   
    35   10   11 ar   
    36   11   37 1    
    37   18   19 1    
    38   17   18 ar   
    39   24   46 1    
    40   24   23 ar   
    41   10    9 ar   
    42    4   17 ar   
    43    5    4 1    
    44    7    5 1    
    45    7    8 ar   
    46   22   23 ar   
    47   22   44 1    
    48    5    6 2    
    49   23   45 1    
    50    9    8 ar   
    51    9   36 1    
    52    8   35 1    
@<TRIPOS>SUBSTRUCTURE
     1 ****       39 TEMP              0 ****  ****    0 ROOT 
