#	Name:			LJ-2007-JMC-1778-4C
#	Creating user name:	Administrator
#	Creation time:		Sun Jul 05 16:55:56 2020

#	Modifying user name:	Administrator
#	Modification time:	Sun Jul 05 16:57:59 2020

@<TRIPOS>MOLECULE
LJ-2007-JMC-1778-4C
   45    48     1     0     0
SMALL
MULLIKEN_CHARGES
INVALID_CHARGES
Gaussian 16 #p B3LYP/6-31G* opt
@<TRIPOS>ATOM
      1 O          -3.164042   -1.486422    1.200020 O.2       1 <1>        -0.466700 
      2 C          -3.509678   -0.358601    0.853580 C.2       1 <1>         0.429900 
      3 C          -2.484335    0.767113    0.942124 C.3       1 <1>        -0.570400 
      4 S          -1.396454    0.861404   -0.546482 S.3       1 <1>         0.219100 
      5 C          -0.136857   -0.371254   -0.241678 C.ar      1 <1>         0.322700 
      6 N           0.957239   -0.188424   -0.920136 N.ar      1 <1>        -0.485500 
      7 C           1.938490   -1.139857   -0.769388 C.ar      1 <1>         0.193200 
      8 C           3.235972   -0.827922   -1.502099 C.2       1 <1>         0.358300 
      9 O           3.607177    0.335342   -1.521273 O.2       1 <1>        -0.439400 
     10 C           3.998216   -1.946076   -2.137033 C.ar      1 <1>         0.030300 
     11 C           3.288984   -3.035793   -2.624239 C.ar      1 <1>        -0.189400 
     12 C           3.926240   -4.091394   -3.308724 C.ar      1 <1>        -0.135900 
     13 C           5.289259   -4.064686   -3.484836 C.ar      1 <1>        -0.176500 
     14 C           6.068674   -2.982472   -2.996534 C.ar      1 <1>         0.131000 
     15 C           7.478261   -2.971101   -3.171290 C.ar      1 <1>        -0.196100 
     16 C           8.239622   -1.927434   -2.699868 C.ar      1 <1>        -0.127500 
     17 C           7.613316   -0.850789   -2.032069 C.ar      1 <1>        -0.137500 
     18 C           6.247032   -0.826114   -1.848858 C.ar      1 <1>        -0.182100 
     19 C           5.427637   -1.888097   -2.321998 C.ar      1 <1>         0.077000 
     20 C           1.833538   -2.206055    0.081230 C.ar      1 <1>        -0.234300 
     21 C           0.629449   -2.406486    0.865689 C.ar      1 <1>         0.608300 
     22 O           0.396808   -3.311073    1.651744 O.2       1 <1>        -0.511000 
     23 N          -0.350558   -1.405784    0.613294 N.ar      1 <1>        -0.663600 
     24 C          -4.883645   -0.101285    0.348211 C.ar      1 <1>         0.082900 
     25 C          -5.802036   -1.166256    0.382758 C.ar      1 <1>        -0.149900 
     26 C          -7.101984   -0.989701   -0.076430 C.ar      1 <1>        -0.130500 
     27 C          -7.500959    0.250289   -0.585731 C.ar      1 <1>        -0.114400 
     28 C          -6.595682    1.311948   -0.632980 C.ar      1 <1>        -0.133100 
     29 C          -5.294109    1.140420   -0.165045 C.ar      1 <1>        -0.174400 
     30 H          -2.935239    1.757580    1.018897 H         1 <1>         0.207000 
     31 H          -1.865649    0.609173    1.828951 H         1 <1>         0.222200 
     32 H           2.212652   -3.071083   -2.495417 H         1 <1>         0.150900 
     33 H           3.335045   -4.919155   -3.689006 H         1 <1>         0.139800 
     34 H           5.794070   -4.876045   -4.004013 H         1 <1>         0.138400 
     35 H           7.944163   -3.809167   -3.684382 H         1 <1>         0.132100 
     36 H           9.317414   -1.928141   -2.837463 H         1 <1>         0.133200 
     37 H           8.216470   -0.027007   -1.659794 H         1 <1>         0.135500 
     38 H           5.781469    0.014738   -1.353877 H         1 <1>         0.175800 
     39 H           2.628321   -2.931994    0.198728 H         1 <1>         0.168300 
     40 H          -1.270982   -1.564877    1.040477 H         1 <1>         0.397400 
     41 H          -5.470560   -2.121339    0.775877 H         1 <1>         0.175700 
     42 H          -7.805817   -1.816336   -0.041598 H         1 <1>         0.149300 
     43 H          -8.516488    0.387852   -0.946953 H         1 <1>         0.148800 
     44 H          -6.902207    2.273468   -1.034093 H         1 <1>         0.147700 
     45 H          -4.604131    1.976023   -0.219486 H         1 <1>         0.143500 
@<TRIPOS>BOND
     1   27   43 1    
     2   12   33 1    
     3   28   44 1    
     4   13   34 1    
     5   28   27 ar   
     6   26   27 ar   
     7   12   13 ar   
     8   11   12 ar   
     9   29   28 ar   
    10   14   13 ar   
    11   11   32 1    
    12   26   42 1    
    13   10   11 ar   
    14   15   35 1    
    15   25   26 ar   
    16   14   15 ar   
    17   19   14 ar   
    18   29   45 1    
    19   24   29 ar   
    20   15   16 ar   
    21   10   19 ar   
    22    8   10 1    
    23   19   18 ar   
    24   24   25 ar   
    25   25   41 1    
    26    4    5 1    
    27    3    4 1    
    28    2   24 1    
    29   16   36 1    
    30   17   16 ar   
    31    8    9 2    
    32    7    8 1    
    33    6    7 ar   
    34    5    6 ar   
    35   18   17 ar   
    36   18   38 1    
    37    7   20 ar   
    38    5   23 ar   
    39   17   37 1    
    40    2    3 1    
    41    2    1 2    
    42    3   30 1    
    43    3   31 1    
    44   20   39 1    
    45   20   21 ar   
    46   23   40 1    
    47   23   21 ar   
    48   21   22 2    
@<TRIPOS>SUBSTRUCTURE
     1 ****       43 TEMP              0 ****  ****    0 ROOT 
