#	Name:			LJ-2007-JMC-1778-4I
#	Creating user name:	Administrator
#	Creation time:		Sun Jul 05 16:55:56 2020

#	Modifying user name:	Administrator
#	Modification time:	Sun Jul 05 16:57:59 2020

@<TRIPOS>MOLECULE
LJ-2007-JMC-1778-4I
   43    45     1     0     0
SMALL
MULLIKEN_CHARGES
INVALID_CHARGES
Gaussian 16 #p B3LYP/6-31G* opt
@<TRIPOS>ATOM
      1 C           1.495734    3.033611    0.097663 C.2       1 <1>        -0.327100 
      2 C           0.170966    3.044994   -0.065868 C.2       1 <1>        -0.049100 
      3 C          -0.543532    2.273858   -1.132432 C.3       1 <1>        -0.467400 
      4 S          -1.466585    0.803870   -0.460486 S.3       1 <1>         0.135100 
      5 C          -0.116105   -0.339402   -0.279461 C.ar      1 <1>         0.340100 
      6 N           0.986680   -0.210191   -0.952874 N.ar      1 <1>        -0.494100 
      7 C           1.968962   -1.153355   -0.745336 C.ar      1 <1>         0.108200 
      8 C           3.271241   -0.790917   -1.457643 C.2       1 <1>         0.360800 
      9 O           3.910244    0.135825   -0.976304 O.2       1 <1>        -0.460300 
     10 C           3.660204   -1.535883   -2.685610 C.ar      1 <1>         0.047700 
     11 C           2.692694   -2.330102   -3.289854 C.ar      1 <1>        -0.191100 
     12 C           2.945968   -3.038883   -4.480931 C.ar      1 <1>        -0.136400 
     13 C           4.189237   -2.964674   -5.063712 C.ar      1 <1>        -0.174900 
     14 C           5.221992   -2.177723   -4.488859 C.ar      1 <1>         0.134100 
     15 C           6.503318   -2.118775   -5.098487 C.ar      1 <1>        -0.196400 
     16 C           7.511324   -1.360162   -4.550988 C.ar      1 <1>        -0.126900 
     17 C           7.269198   -0.629280   -3.366476 C.ar      1 <1>        -0.136400 
     18 C           6.036299   -0.660416   -2.748424 C.ar      1 <1>        -0.186700 
     19 C           4.970525   -1.434498   -3.284565 C.ar      1 <1>         0.069400 
     20 C           1.857966   -2.233905    0.091453 C.ar      1 <1>         0.077400 
     21 C           2.938297   -3.259053    0.337843 C.3       1 <1>        -0.329700 
     22 C           2.619677   -4.645865   -0.249469 C.3       1 <1>        -0.452900 
     23 C           0.616818   -2.390725    0.843747 C.ar      1 <1>         0.582000 
     24 O           0.349845   -3.276183    1.646691 O.2       1 <1>        -0.519500 
     25 N          -0.325926   -1.367640    0.590540 N.ar      1 <1>        -0.648100 
     26 H           2.150613    2.435645   -0.530295 H         1 <1>         0.180800 
     27 H           1.967457    3.611490    0.888140 H         1 <1>         0.145600 
     28 H          -0.457642    3.627656    0.606662 H         1 <1>         0.137500 
     29 H          -1.327884    2.863725   -1.617407 H         1 <1>         0.185700 
     30 H           0.138395    1.887303   -1.891007 H         1 <1>         0.222900 
     31 H           1.707191   -2.397445   -2.842274 H         1 <1>         0.156600 
     32 H           2.159308   -3.639046   -4.928288 H         1 <1>         0.142000 
     33 H           4.401330   -3.510582   -5.980101 H         1 <1>         0.141300 
     34 H           6.671400   -2.689363   -6.008725 H         1 <1>         0.134100 
     35 H           8.488774   -1.321521   -5.023758 H         1 <1>         0.135400 
     36 H           8.066219   -0.029950   -2.934521 H         1 <1>         0.137400 
     37 H           5.861686   -0.084720   -1.850964 H         1 <1>         0.183300 
     38 H           3.062523   -3.360714    1.423126 H         1 <1>         0.169500 
     39 H           3.892956   -2.897308   -0.058327 H         1 <1>         0.147900 
     40 H           1.683242   -5.029820    0.164187 H         1 <1>         0.177200 
     41 H           3.418592   -5.353946   -0.003020 H         1 <1>         0.146600 
     42 H           2.531488   -4.603325   -1.340524 H         1 <1>         0.142500 
     43 H          -1.176192   -1.417348    1.143286 H         1 <1>         0.355900 
@<TRIPOS>BOND
     1   12   32 1    
     2   13   33 1    
     3   12   13 ar   
     4   11   12 ar   
     5   14   13 ar   
     6    3   29 1    
     7   11   31 1    
     8   10   11 ar   
     9   15   34 1    
    10    3   30 1    
    11    4    3 1    
    12    5    4 1    
    13    3    2 1    
    14   14   15 ar   
    15   19   14 ar   
    16   15   16 ar   
    17    6    5 ar   
    18   25    5 ar   
    19   22   42 1    
    20    7    6 ar   
    21   10   19 ar   
    22    8   10 1    
    23   25   43 1    
    24   23   25 ar   
    25   19   18 ar   
    26   22   40 1    
    27    7    8 1    
    28   20    7 ar   
    29    2   28 1    
    30    2    1 2    
    31   22   41 1    
    32   21   22 1    
    33   20   23 ar   
    34   23   24 2    
    35    8    9 2    
    36   16   35 1    
    37   16   17 ar   
    38   20   21 1    
    39    1   26 1    
    40   18   17 ar   
    41   18   37 1    
    42    1   27 1    
    43   21   39 1    
    44   21   38 1    
    45   17   36 1    
@<TRIPOS>SUBSTRUCTURE
     1 ****       29 TEMP              0 ****  ****    0 ROOT 
