#	Name:			SGF-2005-APALS-457-5C
#	Creating user name:	Administrator
#	Creation time:		Sun Jul 05 16:56:24 2020

#	Modifying user name:	Administrator
#	Modification time:	Sun Jul 05 16:57:59 2020

@<TRIPOS>MOLECULE
SGF-2005-APALS-457-5C
   50    53     1     0     0
SMALL
MULLIKEN_CHARGES
INVALID_CHARGES
Gaussian 16 #p B3LYP/6-31G* opt
@<TRIPOS>ATOM
      1 C           3.659361   -2.841017    1.791910 C.3       1 <1>        -0.450000 
      2 C           2.954131   -3.206843    0.471361 C.3       1 <1>        -0.333700 
      3 C           1.873226   -2.219605    0.113508 C.ar      1 <1>         0.087100 
      4 C           1.975658   -1.164771   -0.761500 C.ar      1 <1>        -0.015600 
      5 S           3.448515   -0.767853   -1.734125 S.3       1 <1>         0.164400 
      6 C           3.793573   -2.240120   -2.708515 C.ar      1 <1>        -0.180600 
      7 C           5.051395   -2.800268   -2.578972 C.ar      1 <1>        -0.155000 
      8 C           5.447671   -3.895456   -3.380692 C.ar      1 <1>        -0.126300 
      9 C           4.571173   -4.434439   -4.291647 C.ar      1 <1>        -0.189500 
     10 C           3.273160   -3.883773   -4.465302 C.ar      1 <1>         0.147100 
     11 C           2.368468   -4.423305   -5.418752 C.ar      1 <1>        -0.192100 
     12 C           1.125640   -3.866175   -5.611311 C.ar      1 <1>        -0.130100 
     13 C           0.738669   -2.732307   -4.859784 C.ar      1 <1>        -0.138600 
     14 C           1.586555   -2.187504   -3.920344 C.ar      1 <1>        -0.203200 
     15 C           2.869810   -2.749085   -3.681246 C.ar      1 <1>         0.128600 
     16 N           0.987556   -0.220645   -0.954852 N.ar      1 <1>        -0.473400 
     17 C          -0.113396   -0.345040   -0.285827 C.ar      1 <1>         0.342300 
     18 S          -1.467938    0.810328   -0.431708 S.3       1 <1>         0.162800 
     19 C          -0.694666    2.135401   -1.454614 C.3       1 <1>        -0.553700 
     20 C          -0.678640    3.467659   -0.700431 C.2       1 <1>         0.420800 
     21 O           0.370030    3.871442   -0.225750 O.2       1 <1>        -0.441100 
     22 C          -1.945082    4.246345   -0.564825 C.ar      1 <1>         0.080600 
     23 C          -1.896523    5.458800    0.146053 C.ar      1 <1>        -0.156200 
     24 C          -3.035160    6.235964    0.310686 C.ar      1 <1>        -0.196300 
     25 C          -4.232381    5.787767   -0.244251 C.ar      1 <1>         0.394700 
     26 F          -5.339685    6.534339   -0.089415 F         1 <1>        -0.285400 
     27 C          -4.320953    4.594528   -0.953008 C.ar      1 <1>        -0.202500 
     28 C          -3.169121    3.827184   -1.111225 C.ar      1 <1>        -0.181800 
     29 N          -0.343905   -1.380163    0.565417 N.ar      1 <1>        -0.654000 
     30 C           0.614529   -2.382731    0.842414 C.ar      1 <1>         0.589100 
     31 O           0.345924   -3.264903    1.646821 O.2       1 <1>        -0.515300 
     32 H           4.421291   -3.590578    2.034240 H         1 <1>         0.145200 
     33 H           2.942600   -2.808027    2.617891 H         1 <1>         0.167800 
     34 H           4.152097   -1.865442    1.717898 H         1 <1>         0.152400 
     35 H           3.686891   -3.279729   -0.332069 H         1 <1>         0.162500 
     36 H           2.487245   -4.191673    0.582729 H         1 <1>         0.168300 
     37 H           5.739200   -2.396727   -1.842041 H         1 <1>         0.152700 
     38 H           6.441922   -4.315076   -3.256405 H         1 <1>         0.138100 
     39 H           4.860971   -5.287987   -4.899659 H         1 <1>         0.136300 
     40 H           2.682757   -5.286810   -6.000252 H         1 <1>         0.133200 
     41 H           0.444147   -4.288028   -6.345005 H         1 <1>         0.133300 
     42 H          -0.236432   -2.283496   -5.028985 H         1 <1>         0.131600 
     43 H           1.280452   -1.309959   -3.361975 H         1 <1>         0.170200 
     44 H          -1.235809    2.192643   -2.402156 H         1 <1>         0.198600 
     45 H           0.334249    1.815898   -1.634702 H         1 <1>         0.263400 
     46 H          -0.945102    5.770820    0.563401 H         1 <1>         0.178400 
     47 H          -3.015911    7.173707    0.856059 H         1 <1>         0.160200 
     48 H          -5.274735    4.285699   -1.367223 H         1 <1>         0.158200 
     49 H          -3.240103    2.896726   -1.665958 H         1 <1>         0.149500 
     50 H          -1.209906   -1.455031    1.090155 H         1 <1>         0.356900 
@<TRIPOS>BOND
     1   30   31 2    
     2   29   50 1    
     3   12   41 1    
     4   30   29 ar   
     5   17   29 ar   
     6   27   48 1    
     7   13   42 1    
     8    3   30 ar   
     9   13   12 ar   
    10   11   12 ar   
    11    2   36 1    
    12   11   40 1    
    13   14   13 ar   
    14   17   18 1    
    15   18   19 1    
    16   28   49 1    
    17   10   11 ar   
    18   28   27 ar   
    19   27   25 ar   
    20   16   17 ar   
    21    3    2 1    
    22    4    3 ar   
    23   25   26 1    
    24   22   28 ar   
    25    2   35 1    
    26    2    1 1    
    27    1   33 1    
    28   14   43 1    
    29   15   14 ar   
    30   24   25 ar   
    31   15   10 ar   
    32   10    9 ar   
    33   19   44 1    
    34    4   16 ar   
    35    1   32 1    
    36    1   34 1    
    37    6   15 ar   
    38    5    4 1    
    39    9   39 1    
    40   19   45 1    
    41   19   20 1    
    42    9    8 ar   
    43   20   22 1    
    44   22   23 ar   
    45   23   24 ar   
    46   24   47 1    
    47   20   21 2    
    48    6    5 1    
    49    6    7 ar   
    50   23   46 1    
    51    8    7 ar   
    52    8   38 1    
    53    7   37 1    
@<TRIPOS>SUBSTRUCTURE
     1 ****       41 TEMP              0 ****  ****    0 ROOT 
