#	Name:			SGF-2005-APALS-457-6E
#	Creating user name:	Administrator
#	Creation time:		Sun Jul 05 16:56:25 2020

#	Modifying user name:	Administrator
#	Modification time:	Sun Jul 05 16:57:59 2020

@<TRIPOS>MOLECULE
SGF-2005-APALS-457-6E
   54    57     1     0     0
SMALL
MULLIKEN_CHARGES
INVALID_CHARGES
Gaussian 16 #p B3LYP/6-31G* opt
@<TRIPOS>ATOM
      1 C           3.636172   -2.969719    1.742523 C.3       1 <1>        -0.450000 
      2 C           2.947991   -3.224465    0.387977 C.3       1 <1>        -0.328700 
      3 C           1.882376   -2.203376    0.091378 C.ar      1 <1>         0.077500 
      4 C           2.006334   -1.174540   -0.786865 C.ar      1 <1>         0.029200 
      5 S           3.388418   -0.788325   -1.867361 S.3       1 <1>         0.133900 
      6 C           3.581512   -2.233023   -2.928587 C.ar      1 <1>        -0.170300 
      7 C           4.864731   -2.743423   -2.999348 C.ar      1 <1>        -0.153000 
      8 C           5.178536   -3.803496   -3.880226 C.ar      1 <1>        -0.127600 
      9 C           4.195252   -4.360209   -4.661609 C.ar      1 <1>        -0.187300 
     10 C           2.862169   -3.872005   -4.612841 C.ar      1 <1>         0.145700 
     11 C           1.843145   -4.448893   -5.417256 C.ar      1 <1>        -0.190900 
     12 C           0.552662   -3.973183   -5.379784 C.ar      1 <1>        -0.131200 
     13 C           0.228365   -2.884759   -4.538011 C.ar      1 <1>        -0.144100 
     14 C           1.194855   -2.298788   -3.750591 C.ar      1 <1>        -0.190600 
     15 C           2.533566   -2.771846   -3.747074 C.ar      1 <1>         0.136200 
     16 N           0.974829   -0.245296   -0.905688 N.ar      1 <1>        -0.614300 
     17 C          -0.184505   -0.411568   -0.205800 C.ar      1 <1>         0.327600 
     18 S          -1.409743    0.861422   -0.517716 S.3       1 <1>         0.154800 
     19 C          -2.897611   -0.177503   -0.376362 C.3       1 <1>        -0.546400 
     20 C          -3.123350   -1.110683   -1.578016 C.2       1 <1>         0.427300 
     21 O          -2.275523   -1.234470   -2.449554 O.2       1 <1>        -0.464800 
     22 C          -4.404139   -1.865562   -1.619599 C.ar      1 <1>         0.084700 
     23 C          -5.377668   -1.801016   -0.603427 C.ar      1 <1>        -0.183400 
     24 C          -6.551896   -2.530419   -0.695061 C.ar      1 <1>        -0.175100 
     25 C          -6.788819   -3.348317   -1.812714 C.ar      1 <1>         0.390100 
     26 O          -7.967751   -4.019070   -1.809579 O.3       1 <1>        -0.498300 
     27 C          -8.268549   -4.877065   -2.903759 C.3       1 <1>        -0.221800 
     28 C          -5.829069   -3.425716   -2.834572 C.ar      1 <1>        -0.195000 
     29 C          -4.654428   -2.690505   -2.726309 C.ar      1 <1>        -0.163900 
     30 N          -0.402481   -1.375071    0.618777 N.ar      1 <1>        -0.486900 
     31 C           0.596887   -2.346481    0.831357 C.ar      1 <1>         0.522600 
     32 O           0.407956   -3.272621    1.608830 O.2       1 <1>        -0.496200 
     33 H           2.901706   -2.982880    2.552340 H         1 <1>         0.177800 
     34 H           4.149048   -2.001288    1.749238 H         1 <1>         0.142400 
     35 H           4.379618   -3.749699    1.942086 H         1 <1>         0.142000 
     36 H           3.693653   -3.245053   -0.409672 H         1 <1>         0.151600 
     37 H           2.466337   -4.207741    0.419814 H         1 <1>         0.170700 
     38 H           5.640052   -2.326555   -2.363757 H         1 <1>         0.153100 
     39 H           6.196093   -4.181460   -3.918233 H         1 <1>         0.139000 
     40 H           4.422672   -5.186624   -5.330549 H         1 <1>         0.137300 
     41 H           2.106422   -5.281422   -6.065372 H         1 <1>         0.132700 
     42 H          -0.216570   -4.429795   -5.996450 H         1 <1>         0.132200 
     43 H          -0.788346   -2.505786   -4.493485 H         1 <1>         0.161900 
     44 H           0.913018   -1.467396   -3.119444 H         1 <1>         0.145100 
     45 H           1.019921    0.440254   -1.649795 H         1 <1>         0.365100 
     46 H          -3.739276    0.509149   -0.245086 H         1 <1>         0.195900 
     47 H          -2.793125   -0.774659    0.536033 H         1 <1>         0.248800 
     48 H          -5.218337   -1.185918    0.276412 H         1 <1>         0.142000 
     49 H          -7.304209   -2.490298    0.085842 H         1 <1>         0.149600 
     50 H          -8.318782   -4.319871   -3.847671 H         1 <1>         0.158900 
     51 H          -9.247549   -5.305288   -2.683531 H         1 <1>         0.178200 
     52 H          -7.530258   -5.683326   -2.994874 H         1 <1>         0.161200 
     53 H          -5.990019   -4.051824   -3.704465 H         1 <1>         0.141400 
     54 H          -3.902814   -2.744171   -3.506799 H         1 <1>         0.163300 
@<TRIPOS>BOND
     1   16   45 1    
     2   18   19 1    
     3   17   18 1    
     4   19   46 1    
     5   14   44 1    
     6   20   21 2    
     7   13   43 1    
     8   16   17 ar   
     9    4   16 ar   
    10   19   20 1    
    11   19   47 1    
    12    5    6 1    
    13    4    5 1    
    14   20   22 1    
    15   14   13 ar   
    16   15   14 ar   
    17   13   12 ar   
    18   30   17 ar   
    19   29   54 1    
    20    6   15 ar   
    21   15   10 ar   
    22   22   29 ar   
    23   22   23 ar   
    24    6    7 ar   
    25   12   42 1    
    26   11   12 ar   
    27   29   28 ar   
    28    3    4 ar   
    29   23   48 1    
    30   23   24 ar   
    31    7   38 1    
    32    7    8 ar   
    33   10   11 ar   
    34   10    9 ar   
    35   11   41 1    
    36   28   53 1    
    37   28   25 ar   
    38   27   50 1    
    39    8    9 ar   
    40    8   39 1    
    41    9   40 1    
    42   31   30 ar   
    43   24   25 ar   
    44   24   49 1    
    45   25   26 1    
    46    3   31 ar   
    47    2    3 1    
    48   26   27 1    
    49   27   51 1    
    50   27   52 1    
    51   31   32 2    
    52    2   36 1    
    53    1   34 1    
    54    2    1 1    
    55    2   37 1    
    56    1   33 1    
    57    1   35 1    
@<TRIPOS>SUBSTRUCTURE
     1 ****       44 TEMP              0 ****  ****    0 ROOT 
