#	Name:			WHQ-2013-BMC-6477-3-7g
#	Creating user name:	Administrator
#	Creation time:		Sun Jul 05 16:56:39 2020

#	Modifying user name:	Administrator
#	Modification time:	Sun Jul 05 16:57:59 2020

@<TRIPOS>MOLECULE
WHQ-2013-BMC-6477-3-7g
   44    46     1     0     0
SMALL
MULLIKEN_CHARGES
INVALID_CHARGES
Gaussian 16 #p B3LYP/6-31G* opt
@<TRIPOS>ATOM
      1 C           3.158945    6.192076    2.036124 C.3       1 <1>        -0.217500 
      2 O           1.765589    6.199768    1.764723 O.3       1 <1>        -0.504900 
      3 C           1.251900    5.199407    0.994093 C.ar      1 <1>         0.378200 
      4 C          -0.132276    5.256940    0.766309 C.ar      1 <1>        -0.170400 
      5 C          -0.750065    4.285075   -0.006778 C.ar      1 <1>        -0.176500 
      6 C          -0.015105    3.231114   -0.574684 C.ar      1 <1>         0.182500 
      7 C          -0.690416    2.184920   -1.415040 C.3       1 <1>        -0.531000 
      8 S          -1.475020    0.794354   -0.450438 S.3       1 <1>         0.147100 
      9 C          -0.113765   -0.333626   -0.281077 C.ar      1 <1>         0.339500 
     10 N           0.987527   -0.216850   -0.960499 N.ar      1 <1>        -0.519400 
     11 C           1.976940   -1.159677   -0.749940 C.ar      1 <1>         0.149500 
     12 C           3.261761   -0.876674   -1.503690 C.2       1 <1>         0.355500 
     13 O           4.328558   -0.930162   -0.905171 O.2       1 <1>        -0.462100 
     14 C           3.211863   -0.527330   -2.954355 C.ar      1 <1>         0.081200 
     15 C           2.073739   -0.715358   -3.756218 C.ar      1 <1>        -0.157100 
     16 C           2.108973   -0.424867   -5.117560 C.ar      1 <1>        -0.208800 
     17 C           3.291048    0.062642   -5.665654 C.ar      1 <1>         0.393600 
     18 F           3.327308    0.352275   -6.979094 F         1 <1>        -0.288000 
     19 C           4.438999    0.259080   -4.901586 C.ar      1 <1>        -0.200200 
     20 C           4.392442   -0.046252   -3.547089 C.ar      1 <1>        -0.158100 
     21 C           1.863789   -2.230957    0.101510 C.ar      1 <1>         0.056200 
     22 C           2.903996   -3.282575    0.361468 C.3       1 <1>        -0.505400 
     23 C           0.613456   -2.384480    0.845377 C.ar      1 <1>         0.582000 
     24 O           0.342313   -3.278006    1.635030 O.2       1 <1>        -0.509700 
     25 N          -0.323586   -1.358288    0.594311 N.ar      1 <1>        -0.650400 
     26 C           1.362527    3.187652   -0.342155 C.ar      1 <1>        -0.188000 
     27 C           2.000707    4.158191    0.433632 C.ar      1 <1>        -0.194300 
     28 H           3.749892    6.275235    1.114451 H         1 <1>         0.154000 
     29 H           3.345676    7.065007    2.664016 H         1 <1>         0.172000 
     30 H           3.459447    5.285043    2.576590 H         1 <1>         0.156200 
     31 H          -0.696484    6.074588    1.203776 H         1 <1>         0.141500 
     32 H          -1.823453    4.344750   -0.174189 H         1 <1>         0.127500 
     33 H          -1.533764    2.596253   -1.976979 H         1 <1>         0.191200 
     34 H          -0.002172    1.706000   -2.113054 H         1 <1>         0.222900 
     35 H           1.156574   -1.090596   -3.318195 H         1 <1>         0.158000 
     36 H           1.242918   -0.569628   -5.754718 H         1 <1>         0.154400 
     37 H           5.339213    0.638144   -5.373987 H         1 <1>         0.155800 
     38 H           5.269409    0.078500   -2.920779 H         1 <1>         0.171500 
     39 H           2.433534   -4.271106    0.365034 H         1 <1>         0.173300 
     40 H           3.344069   -3.142953    1.356692 H         1 <1>         0.180300 
     41 H           3.714132   -3.256184   -0.366461 H         1 <1>         0.169200 
     42 H          -1.183312   -1.419074    1.131463 H         1 <1>         0.357900 
     43 H           1.948318    2.379990   -0.770686 H         1 <1>         0.152800 
     44 H           3.071320    4.092123    0.589624 H         1 <1>         0.138000 
@<TRIPOS>BOND
     1    1   30 1    
     2    1   29 1    
     3   22   40 1    
     4    1   28 1    
     5    2    1 1    
     6   12   13 2    
     7   22   41 1    
     8   20   38 1    
     9   22   39 1    
    10   21   22 1    
    11   27   44 1    
    12   11   12 1    
    13   12   14 1    
    14    3    2 1    
    15   20   19 ar   
    16   14   20 ar   
    17   19   37 1    
    18   11   21 ar   
    19   23   21 ar   
    20   27    3 ar   
    21   26   27 ar   
    22   19   17 ar   
    23   10   11 ar   
    24   14   15 ar   
    25    4    3 ar   
    26   23   24 2    
    27   26   43 1    
    28   25   23 ar   
    29    6   26 ar   
    30    9   10 ar   
    31    9   25 ar   
    32   25   42 1    
    33   17   18 1    
    34   16   17 ar   
    35   15   35 1    
    36   15   16 ar   
    37    4   31 1    
    38    5    4 ar   
    39    8    9 1    
    40    6    5 ar   
    41    7    6 1    
    42   16   36 1    
    43    5   32 1    
    44    7   34 1    
    45    7    8 1    
    46    7   33 1    
@<TRIPOS>SUBSTRUCTURE
     1 ****       44 TEMP              0 ****  ****    0 ROOT 
