#	Name:			WHQ-2014-MCC-5468-3-1c
#	Creating user name:	Administrator
#	Creation time:		Sun Jul 05 16:56:40 2020

#	Modifying user name:	Administrator
#	Modification time:	Sun Jul 05 16:57:59 2020

@<TRIPOS>MOLECULE
WHQ-2014-MCC-5468-3-1c
   46    48     1     0     0
SMALL
MULLIKEN_CHARGES
INVALID_CHARGES
Gaussian 16 #p B3LYP/6-31G* opt
@<TRIPOS>ATOM
      1 C          -4.067002    7.641608   -1.380616 C.3       1 <1>        -0.218200 
      2 O          -4.214494    6.475000   -2.176422 O.3       1 <1>        -0.504000 
      3 C          -3.338507    5.448442   -1.988477 C.ar      1 <1>         0.379400 
      4 C          -2.290417    5.453591   -1.059669 C.ar      1 <1>        -0.194300 
      5 C          -1.453837    4.340483   -0.959341 C.ar      1 <1>        -0.171700 
      6 C          -1.633093    3.216285   -1.770225 C.ar      1 <1>         0.140100 
      7 C          -0.720487    2.026849   -1.653933 C.3       1 <1>        -0.499800 
      8 S          -1.454344    0.812396   -0.446627 S.3       1 <1>         0.158800 
      9 C          -0.126340   -0.348683   -0.290050 C.ar      1 <1>         0.321400 
     10 N           0.981939   -0.219233   -0.961078 N.ar      1 <1>        -0.520100 
     11 C           1.971215   -1.149918   -0.745206 C.ar      1 <1>         0.245100 
     12 C           3.251440   -0.910600   -1.552293 C.3       1 <1>        -0.335700 
     13 C           3.498824    0.530795   -1.737455 C.1       1 <1>         0.392400 
     14 N           3.725545    1.658282   -1.892003 N.1       1 <1>        -0.477000 
     15 C           3.239015   -1.625467   -2.911846 C.ar      1 <1>         0.166100 
     16 C           2.117034   -1.520406   -3.746254 C.ar      1 <1>        -0.161500 
     17 C           2.072908   -2.152397   -4.985682 C.ar      1 <1>        -0.126900 
     18 C           3.163181   -2.907634   -5.420011 C.ar      1 <1>        -0.120200 
     19 C           4.294045   -3.020711   -4.615257 C.ar      1 <1>        -0.126800 
     20 C           4.326603   -2.379176   -3.375701 C.ar      1 <1>        -0.130000 
     21 CL          5.799650   -2.543572   -2.418038 Cl        1 <1>        -0.007400 
     22 C           1.863160   -2.224475    0.100409 C.ar      1 <1>         0.065100 
     23 C           2.937455   -3.254320    0.331909 C.3       1 <1>        -0.551400 
     24 C           0.618590   -2.387962    0.847475 C.ar      1 <1>         0.579600 
     25 O           0.348321   -3.275876    1.644845 O.2       1 <1>        -0.518200 
     26 N          -0.330885   -1.373778    0.584506 N.ar      1 <1>        -0.649000 
     27 C          -2.690511    3.228359   -2.694768 C.ar      1 <1>        -0.168700 
     28 C          -3.532926    4.325243   -2.807250 C.ar      1 <1>        -0.170500 
     29 H          -4.861955    8.319870   -1.695478 H         1 <1>         0.173400 
     30 H          -3.093696    8.121815   -1.545980 H         1 <1>         0.155800 
     31 H          -4.182999    7.417987   -0.312133 H         1 <1>         0.155000 
     32 H          -2.114655    6.310041   -0.419149 H         1 <1>         0.137900 
     33 H          -0.641683    4.355474   -0.236481 H         1 <1>         0.141200 
     34 H          -0.600322    1.505717   -2.605652 H         1 <1>         0.199600 
     35 H           0.271082    2.288672   -1.281638 H         1 <1>         0.226100 
     36 H           4.094781   -1.298166   -0.974574 H         1 <1>         0.216400 
     37 H           1.274830   -0.927127   -3.404662 H         1 <1>         0.167200 
     38 H           1.190289   -2.053626   -5.610627 H         1 <1>         0.144000 
     39 H           3.139928   -3.406207   -6.384623 H         1 <1>         0.146700 
     40 H           5.153208   -3.598157   -4.938893 H         1 <1>         0.161200 
     41 H           3.303869   -3.683947   -0.606549 H         1 <1>         0.172900 
     42 H           2.532392   -4.058819    0.948853 H         1 <1>         0.200300 
     43 H           3.801720   -2.830694    0.860091 H         1 <1>         0.170500 
     44 H          -1.197385   -1.452125    1.107854 H         1 <1>         0.357400 
     45 H          -2.851002    2.366310   -3.338196 H         1 <1>         0.134300 
     46 H          -4.347493    4.340897   -3.524389 H         1 <1>         0.143500 
@<TRIPOS>BOND
     1   13   14 3    
     2    4   32 1    
     3    5   33 1    
     4   12   13 1    
     5    1   30 1    
     6   12   36 1    
     7   23   43 1    
     8   20   21 1    
     9    1   31 1    
    10    5    4 ar   
    11    4    3 ar   
    12    6    5 ar   
    13   11   12 1    
    14   12   15 1    
    15    1   29 1    
    16    2    1 1    
    17    7   35 1    
    18   22   23 1    
    19   23   42 1    
    20   23   41 1    
    21   11   22 ar   
    22   10   11 ar   
    23   22   24 ar   
    24    9   10 ar   
    25   15   20 ar   
    26   20   19 ar   
    27   15   16 ar   
    28    7    6 1    
    29    8    7 1    
    30    7   34 1    
    31    6   27 ar   
    32    3    2 1    
    33    3   28 ar   
    34    9   26 ar   
    35    9    8 1    
    36   24   26 ar   
    37   24   25 2    
    38   26   44 1    
    39   19   40 1    
    40   19   18 ar   
    41   16   37 1    
    42   16   17 ar   
    43   27   28 ar   
    44   27   45 1    
    45   28   46 1    
    46   18   17 ar   
    47   18   39 1    
    48   17   38 1    
@<TRIPOS>SUBSTRUCTURE
     1 ****       21 TEMP              0 ****  ****    0 ROOT 
