#	Name:			WHQ-2013-BMC-6477-3-7k
#	Creating user name:	Administrator
#	Creation time:		Sun Jul 05 16:56:40 2020

#	Modifying user name:	Administrator
#	Modification time:	Sun Jul 05 16:57:59 2020

@<TRIPOS>MOLECULE
WHQ-2013-BMC-6477-3-7k
   50    52     1     0     0
SMALL
MULLIKEN_CHARGES
INVALID_CHARGES
Gaussian 16 #p B3LYP/6-31G* opt
@<TRIPOS>ATOM
      1 C          -3.485610    0.242594    6.631925 C.3       1 <1>        -0.219400 
      2 O          -3.702849   -0.785548    5.676184 O.3       1 <1>        -0.501800 
      3 C          -3.495745   -0.503519    4.361186 C.ar      1 <1>         0.380700 
      4 C          -3.703809   -1.563762    3.468817 C.ar      1 <1>        -0.158500 
      5 C          -3.516759   -1.372321    2.104461 C.ar      1 <1>        -0.200600 
      6 C          -3.117072   -0.126989    1.590462 C.ar      1 <1>         0.134700 
      7 C          -2.968102    0.063870    0.097159 C.3       1 <1>        -0.546100 
      8 S          -1.412522    0.863402   -0.514186 S.3       1 <1>         0.190700 
      9 C          -0.152378   -0.367455   -0.262663 C.ar      1 <1>         0.329400 
     10 N           0.943945   -0.211108   -0.940309 N.ar      1 <1>        -0.507900 
     11 C           1.944552   -1.136184   -0.746050 C.ar      1 <1>         0.145400 
     12 C           3.128343   -0.872571   -1.654813 C.2       1 <1>         0.363100 
     13 O           3.553286   -1.759441   -2.381149 O.2       1 <1>        -0.450800 
     14 C           3.713381    0.502772   -1.717939 C.ar      1 <1>         0.030400 
     15 C           4.431165    0.860485   -2.872011 C.ar      1 <1>        -0.163400 
     16 C           5.019373    2.113773   -2.998105 C.ar      1 <1>        -0.131400 
     17 C           4.915045    3.036888   -1.952374 C.ar      1 <1>        -0.120900 
     18 C           4.229157    2.702234   -0.785953 C.ar      1 <1>        -0.197100 
     19 C           3.641812    1.446723   -0.686575 C.ar      1 <1>         0.343800 
     20 F           3.017953    1.137979    0.468211 F         1 <1>        -0.286000 
     21 C           1.874672   -2.225914    0.091227 C.ar      1 <1>         0.068000 
     22 C           2.995902   -3.231846    0.293766 C.3       1 <1>        -0.143800 
     23 C           2.595998   -4.627529   -0.225468 C.3       1 <1>        -0.455800 
     24 C           3.461573   -3.283480    1.763634 C.3       1 <1>        -0.457900 
     25 C           0.637484   -2.400997    0.850960 C.ar      1 <1>         0.579400 
     26 O           0.365569   -3.294941    1.645010 O.2       1 <1>        -0.522500 
     27 N          -0.329666   -1.394333    0.610285 N.ar      1 <1>        -0.650800 
     28 C          -2.909846    0.920593    2.494835 C.ar      1 <1>        -0.170600 
     29 C          -3.095602    0.745987    3.865542 C.ar      1 <1>        -0.192200 
     30 H          -3.699801   -0.204766    7.603840 H         1 <1>         0.176300 
     31 H          -4.159219    1.093918    6.468172 H         1 <1>         0.154500 
     32 H          -2.445880    0.594116    6.615259 H         1 <1>         0.157800 
     33 H          -4.005672   -2.527635    3.865186 H         1 <1>         0.152400 
     34 H          -3.691151   -2.205264    1.426399 H         1 <1>         0.142900 
     35 H          -3.729177    0.752273   -0.289215 H         1 <1>         0.206600 
     36 H          -3.103882   -0.882819   -0.434541 H         1 <1>         0.195500 
     37 H           4.505454    0.122800   -3.664290 H         1 <1>         0.168500 
     38 H           5.557970    2.373407   -3.904487 H         1 <1>         0.140800 
     39 H           5.373508    4.017899   -2.040549 H         1 <1>         0.144500 
     40 H           4.145068    3.389692    0.049123 H         1 <1>         0.150500 
     41 H           3.844414   -2.899540   -0.308593 H         1 <1>         0.149800 
     42 H           2.350745   -4.584708   -1.291905 H         1 <1>         0.152200 
     43 H           3.431207   -5.326396   -0.097804 H         1 <1>         0.137800 
     44 H           1.733839   -5.018048    0.322266 H         1 <1>         0.171000 
     45 H           4.318348   -3.961703    1.854786 H         1 <1>         0.137700 
     46 H           3.778752   -2.293151    2.111620 H         1 <1>         0.136100 
     47 H           2.664276   -3.641621    2.418853 H         1 <1>         0.180700 
     48 H          -1.159060   -1.459486    1.195037 H         1 <1>         0.366500 
     49 H          -2.586617    1.890614    2.126236 H         1 <1>         0.148900 
     50 H          -2.923008    1.581434    4.534166 H         1 <1>         0.140900 
@<TRIPOS>BOND
     1    7   36 1    
     2    7   35 1    
     3    8    7 1    
     4    7    6 1    
     5    5   34 1    
     6    9    8 1    
     7   23   42 1    
     8    6    5 ar   
     9    5    4 ar   
    10    6   28 ar   
    11   10    9 ar   
    12   27    9 ar   
    13   15   37 1    
    14   12   13 2    
    15   11   10 ar   
    16   27   48 1    
    17   25   27 ar   
    18   23   44 1    
    19    4   33 1    
    20   23   43 1    
    21   22   23 1    
    22   11   12 1    
    23   21   11 ar   
    24    4    3 ar   
    25   12   14 1    
    26   14   15 ar   
    27   15   16 ar   
    28   21   25 ar   
    29   25   26 2    
    30   28   49 1    
    31   28   29 ar   
    32   16   38 1    
    33   21   22 1    
    34   14   19 ar   
    35   16   17 ar   
    36   22   41 1    
    37   22   24 1    
    38    3   29 ar   
    39    3    2 1    
    40   29   50 1    
    41   19   20 1    
    42   19   18 ar   
    43   17   39 1    
    44   17   18 ar   
    45    2    1 1    
    46   18   40 1    
    47   24   47 1    
    48   24   45 1    
    49   24   46 1    
    50    1   31 1    
    51    1   30 1    
    52    1   32 1    
@<TRIPOS>SUBSTRUCTURE
     1 ****       37 TEMP              0 ****  ****    0 ROOT 
