#	Name:			WHQ-2013-BMC-6477-3-7o
#	Creating user name:	Administrator
#	Creation time:		Sun Jul 05 16:56:40 2020

#	Modifying user name:	Administrator
#	Modification time:	Sun Jul 05 16:57:59 2020

@<TRIPOS>MOLECULE
WHQ-2013-BMC-6477-3-7o
   44    46     1     0     0
SMALL
MULLIKEN_CHARGES
INVALID_CHARGES
Gaussian 16 #p B3LYP/6-31G* opt
@<TRIPOS>ATOM
      1 C           1.361869    7.105260    2.477826 C.3       1 <1>        -0.215600 
      2 O           2.035225    5.981427    1.934075 O.3       1 <1>        -0.503900 
      3 C           1.325322    5.117059    1.153081 C.ar      1 <1>         0.377900 
      4 C          -0.031511    5.259035    0.838128 C.ar      1 <1>        -0.194400 
      5 C          -0.649324    4.307453    0.024576 C.ar      1 <1>        -0.183600 
      6 C           0.052647    3.211888   -0.485972 C.ar      1 <1>         0.179500 
      7 C          -0.633473    2.205426   -1.365372 C.3       1 <1>        -0.528300 
      8 S          -1.464221    0.803076   -0.452079 S.3       1 <1>         0.145700 
      9 C          -0.117405   -0.338572   -0.284150 C.ar      1 <1>         0.344100 
     10 N           0.987433   -0.214742   -0.957389 N.ar      1 <1>        -0.504700 
     11 C           1.968714   -1.158098   -0.749187 C.ar      1 <1>         0.132600 
     12 C           3.245916   -0.817981   -1.502358 C.2       1 <1>         0.356000 
     13 O           3.853725    0.193471   -1.186454 O.2       1 <1>        -0.443200 
     14 C           3.701683   -1.682609   -2.627786 C.ar      1 <1>         0.078000 
     15 C           2.940271   -2.756417   -3.110833 C.ar      1 <1>        -0.166400 
     16 C           3.394233   -3.515697   -4.189085 C.ar      1 <1>        -0.208000 
     17 C           4.610634   -3.197784   -4.777519 C.ar      1 <1>         0.336000 
     18 F           5.072843   -3.911266   -5.812026 F         1 <1>        -0.271100 
     19 C           5.375035   -2.126183   -4.302080 C.ar      1 <1>         0.325400 
     20 F           6.544151   -1.854236   -4.902290 F         1 <1>        -0.277000 
     21 C           4.928485   -1.367132   -3.239004 C.ar      1 <1>        -0.237300 
     22 C           1.860378   -2.227062    0.102078 C.ar      1 <1>         0.060100 
     23 C           2.928570   -3.245670    0.385732 C.3       1 <1>        -0.514200 
     24 C           0.614234   -2.385507    0.847341 C.ar      1 <1>         0.583300 
     25 O           0.351668   -3.279427    1.640120 O.2       1 <1>        -0.510900 
     26 N          -0.329145   -1.367199    0.587537 N.ar      1 <1>        -0.651200 
     27 C           1.415479    3.085033   -0.162253 C.ar      1 <1>        -0.194200 
     28 C           2.043095    4.023748    0.645177 C.ar      1 <1>        -0.175400 
     29 H           0.971089    7.762659    1.689790 H         1 <1>         0.152000 
     30 H           2.107843    7.647399    3.061749 H         1 <1>         0.171500 
     31 H           0.536702    6.802478    3.136083 H         1 <1>         0.152500 
     32 H          -0.609110    6.096954    1.211190 H         1 <1>         0.131900 
     33 H          -1.703901    4.429543   -0.214832 H         1 <1>         0.123600 
     34 H           0.052907    1.725998   -2.064779 H         1 <1>         0.225700 
     35 H          -1.458789    2.651778   -1.926993 H         1 <1>         0.189000 
     36 H           1.989318   -2.998781   -2.649504 H         1 <1>         0.160000 
     37 H           2.821998   -4.349034   -4.582928 H         1 <1>         0.166200 
     38 H           5.515073   -0.530679   -2.875654 H         1 <1>         0.189200 
     39 H           3.858923   -3.032936   -0.144576 H         1 <1>         0.156900 
     40 H           3.138111   -3.276005    1.460983 H         1 <1>         0.184800 
     41 H           2.590030   -4.251684    0.110871 H         1 <1>         0.175200 
     42 H          -1.187647   -1.425418    1.126798 H         1 <1>         0.357800 
     43 H           1.986517    2.243345   -0.543364 H         1 <1>         0.177900 
     44 H           3.095600    3.932807    0.894795 H         1 <1>         0.146400 
@<TRIPOS>BOND
     1   23   40 1    
     2   23   39 1    
     3   23   41 1    
     4   22   23 1    
     5    1   30 1    
     6   24   25 2    
     7   28   44 1    
     8    2    1 1    
     9    3    2 1    
    10    1   31 1    
    11   24   22 ar   
    12   11   22 ar   
    13    1   29 1    
    14   26   24 ar   
    15   12   13 2    
    16   21   38 1    
    17   28    3 ar   
    18   27   28 ar   
    19   11   12 1    
    20   12   14 1    
    21    4    3 ar   
    22   10   11 ar   
    23   14   21 ar   
    24   21   19 ar   
    25   14   15 ar   
    26   19   20 1    
    27   26   42 1    
    28    9   26 ar   
    29   27   43 1    
    30   19   17 ar   
    31    6   27 ar   
    32    9   10 ar   
    33   15   36 1    
    34   15   16 ar   
    35    8    9 1    
    36    4   32 1    
    37    5    4 ar   
    38   16   17 ar   
    39   17   18 1    
    40   16   37 1    
    41    6    5 ar   
    42    7    6 1    
    43    5   33 1    
    44    8    7 1    
    45    7   34 1    
    46    7   35 1    
@<TRIPOS>SUBSTRUCTURE
     1 ****       38 TEMP              0 ****  ****    0 ROOT 
