#	Name:			WHQ-2014-MCC-5468-3-1k
#	Creating user name:	Administrator
#	Creation time:		Sun Jul 05 16:56:41 2020

#	Modifying user name:	Administrator
#	Modification time:	Sun Jul 05 16:57:59 2020

@<TRIPOS>MOLECULE
WHQ-2014-MCC-5468-3-1k
   49    51     1     0     0
SMALL
MULLIKEN_CHARGES
INVALID_CHARGES
Gaussian 16 #p B3LYP/6-31G* opt
@<TRIPOS>ATOM
      1 C           3.747510   -2.993122    1.618696 C.3       1 <1>        -0.447300 
      2 C           2.915334   -3.277262    0.354292 C.3       1 <1>        -0.342700 
      3 C           1.859242   -2.230286    0.094473 C.ar      1 <1>         0.052200 
      4 C           1.975403   -1.149187   -0.741688 C.ar      1 <1>         0.250100 
      5 C           3.248056   -0.883763   -1.557760 C.3       1 <1>        -0.335100 
      6 C           3.534250    0.561393   -1.611821 C.1       1 <1>         0.379800 
      7 N           3.790913    1.691974   -1.663082 N.1       1 <1>        -0.475100 
      8 C           3.174465   -1.481002   -2.969460 C.ar      1 <1>         0.178500 
      9 C           2.180770   -1.079783   -3.870878 C.ar      1 <1>        -0.164600 
     10 C           2.114055   -1.635250   -5.146820 C.ar      1 <1>        -0.148100 
     11 C           3.050719   -2.597881   -5.522356 C.ar      1 <1>         0.085900 
     12 BR          2.961956   -3.363120   -7.271190 Br        1 <1>        -0.122100 
     13 C           4.050841   -3.007512   -4.645073 C.ar      1 <1>        -0.147700 
     14 C           4.106812   -2.442248   -3.370118 C.ar      1 <1>        -0.181900 
     15 N           0.984292   -0.218923   -0.956667 N.ar      1 <1>        -0.521300 
     16 C          -0.126579   -0.348854   -0.291512 C.ar      1 <1>         0.325200 
     17 S          -1.455250    0.811953   -0.445107 S.3       1 <1>         0.160600 
     18 C          -0.716387    2.048630   -1.625919 C.3       1 <1>        -0.502300 
     19 C          -1.607651    3.257981   -1.692125 C.ar      1 <1>         0.140300 
     20 C          -1.442123    4.324991   -0.792918 C.ar      1 <1>        -0.164800 
     21 C          -2.258990    5.444290   -0.851856 C.ar      1 <1>        -0.171000 
     22 C          -3.275230    5.525236   -1.817220 C.ar      1 <1>         0.379500 
     23 O          -4.021381    6.664873   -1.794312 O.3       1 <1>        -0.503100 
     24 C          -5.063254    6.808344   -2.747991 C.3       1 <1>        -0.217900 
     25 C          -3.456821    4.470520   -2.719675 C.ar      1 <1>        -0.193600 
     26 C          -2.624394    3.351527   -2.645963 C.ar      1 <1>        -0.175500 
     27 N          -0.335673   -1.375851    0.580697 N.ar      1 <1>        -0.651000 
     28 C           0.615694   -2.385122    0.845342 C.ar      1 <1>         0.587900 
     29 O           0.354527   -3.271260    1.648735 O.2       1 <1>        -0.519800 
     30 H           4.292862   -2.045236    1.538826 H         1 <1>         0.143200 
     31 H           4.477728   -3.792738    1.786314 H         1 <1>         0.150300 
     32 H           3.096488   -2.938498    2.496239 H         1 <1>         0.175800 
     33 H           2.403114   -4.236558    0.483445 H         1 <1>         0.178700 
     34 H           3.571254   -3.387056   -0.515310 H         1 <1>         0.139500 
     35 H           4.095217   -1.345920   -1.042340 H         1 <1>         0.199100 
     36 H           1.456140   -0.330116   -3.569824 H         1 <1>         0.170300 
     37 H           1.344581   -1.323098   -5.844338 H         1 <1>         0.159300 
     38 H           4.776625   -3.752924   -4.950986 H         1 <1>         0.160400 
     39 H           4.893707   -2.755166   -2.688260 H         1 <1>         0.144100 
     40 H           0.285308    2.278697   -1.259089 H         1 <1>         0.227000 
     41 H          -0.622010    1.556584   -2.595939 H         1 <1>         0.198100 
     42 H          -0.657653    4.276295   -0.041704 H         1 <1>         0.142300 
     43 H          -2.129707    6.274097   -0.164317 H         1 <1>         0.145700 
     44 H          -5.519941    7.778938   -2.547136 H         1 <1>         0.174000 
     45 H          -4.674433    6.795822   -3.774611 H         1 <1>         0.154900 
     46 H          -5.820934    6.021304   -2.638665 H         1 <1>         0.154500 
     47 H          -4.230718    4.509143   -3.477439 H         1 <1>         0.136500 
     48 H          -2.772619    2.538864   -3.353661 H         1 <1>         0.133700 
     49 H          -1.201334   -1.451319    1.106068 H         1 <1>         0.357500 
@<TRIPOS>BOND
     1   27   49 1    
     2   28   29 2    
     3   28   27 ar   
     4   16   27 ar   
     5   24   46 1    
     6    3   28 ar   
     7   26   48 1    
     8   25   47 1    
     9    2   33 1    
    10   16   17 1    
    11   17   18 1    
    12   15   16 ar   
    13   11   12 1    
    14   26   25 ar   
    15   19   26 ar   
    16   25   22 ar   
    17   10   37 1    
    18   24   45 1    
    19   24   44 1    
    20   23   24 1    
    21    3    2 1    
    22    4    3 ar   
    23   18   41 1    
    24    2   34 1    
    25    2    1 1    
    26   10   11 ar   
    27    9   10 ar   
    28   13   11 ar   
    29    4   15 ar   
    30   18   19 1    
    31   18   40 1    
    32   19   20 ar   
    33   22   23 1    
    34   22   21 ar   
    35    9   36 1    
    36    1   32 1    
    37    8    9 ar   
    38    5    4 1    
    39   13   38 1    
    40   14   13 ar   
    41    1   31 1    
    42    1   30 1    
    43    8   14 ar   
    44    8    5 1    
    45   20   21 ar   
    46   20   42 1    
    47   14   39 1    
    48   21   43 1    
    49    5   35 1    
    50    5    6 1    
    51    6    7 3    
@<TRIPOS>SUBSTRUCTURE
     1 ****       37 TEMP              0 ****  ****    0 ROOT 
