#	Name:			WHQ-2014-MCC-5468-3-1m
#	Creating user name:	Administrator
#	Creation time:		Sun Jul 05 16:56:41 2020

#	Modifying user name:	Administrator
#	Modification time:	Sun Jul 05 16:57:59 2020

@<TRIPOS>MOLECULE
WHQ-2014-MCC-5468-3-1m
   52    54     1     0     0
SMALL
MULLIKEN_CHARGES
INVALID_CHARGES
Gaussian 16 #p B3LYP/6-31G* opt
@<TRIPOS>ATOM
      1 C          -4.460490    7.325387   -2.148102 C.3       1 <1>        -0.217200 
      2 O          -4.524174    6.070421   -2.807811 O.3       1 <1>        -0.504400 
      3 C          -3.587879    5.128899   -2.498894 C.ar      1 <1>         0.378600 
      4 C          -3.699381    3.911113   -3.187644 C.ar      1 <1>        -0.171000 
      5 C          -2.792209    2.889549   -2.945985 C.ar      1 <1>        -0.166900 
      6 C          -1.749286    3.048347   -2.018191 C.ar      1 <1>         0.139900 
      7 C          -0.765992    1.939669   -1.762433 C.3       1 <1>        -0.496900 
      8 S          -1.450339    0.817800   -0.441356 S.3       1 <1>         0.153800 
      9 C          -0.128579   -0.350234   -0.286886 C.ar      1 <1>         0.322200 
     10 N           0.981031   -0.219592   -0.949576 N.ar      1 <1>        -0.510600 
     11 C           1.964251   -1.158919   -0.764552 C.ar      1 <1>         0.249400 
     12 C           3.232450   -0.880254   -1.600032 C.3       1 <1>        -0.353000 
     13 C           3.173314    0.445389   -2.246507 C.1       1 <1>         0.398900 
     14 N           3.221484    1.479367   -2.770914 N.1       1 <1>        -0.484700 
     15 C           3.640742   -1.941208   -2.634999 C.ar      1 <1>         0.197600 
     16 C           4.956106   -2.427874   -2.599333 C.ar      1 <1>        -0.177200 
     17 C           5.419716   -3.369353   -3.514444 C.ar      1 <1>        -0.124300 
     18 C           4.561768   -3.847900   -4.503827 C.ar      1 <1>        -0.121500 
     19 C           3.254084   -3.373272   -4.573605 C.ar      1 <1>        -0.125200 
     20 C           2.804147   -2.425619   -3.652173 C.ar      1 <1>        -0.128100 
     21 CL          1.155784   -1.848834   -3.832005 Cl        1 <1>         0.007200 
     22 C           1.878614   -2.216289    0.112924 C.ar      1 <1>         0.065700 
     23 C           2.991092   -3.215093    0.392170 C.3       1 <1>        -0.151900 
     24 C           3.436454   -3.173995    1.869365 C.3       1 <1>        -0.455300 
     25 C           2.605171   -4.645314   -0.038175 C.3       1 <1>        -0.453900 
     26 C           0.623624   -2.383035    0.846993 C.ar      1 <1>         0.585600 
     27 O           0.340981   -3.269700    1.646399 O.2       1 <1>        -0.524700 
     28 N          -0.337930   -1.387563    0.570328 N.ar      1 <1>        -0.647600 
     29 C          -1.653039    4.265279   -1.337926 C.ar      1 <1>        -0.172500 
     30 C          -2.556316    5.304828   -1.568802 C.ar      1 <1>        -0.194200 
     31 H          -4.577532    7.216598   -1.061739 H         1 <1>         0.153900 
     32 H          -5.291105    7.912995   -2.542935 H         1 <1>         0.172300 
     33 H          -3.516300    7.844619   -2.359121 H         1 <1>         0.154900 
     34 H          -4.502458    3.794681   -3.908512 H         1 <1>         0.142700 
     35 H          -2.888414    1.952323   -3.489007 H         1 <1>         0.137000 
     36 H           0.198880    2.306352   -1.409853 H         1 <1>         0.220600 
     37 H          -0.590023    1.324368   -2.646496 H         1 <1>         0.212600 
     38 H           4.068722   -0.818930   -0.891958 H         1 <1>         0.206900 
     39 H           5.629011   -2.053693   -1.831650 H         1 <1>         0.144500 
     40 H           6.444030   -3.724083   -3.453206 H         1 <1>         0.145300 
     41 H           4.905033   -4.584228   -5.224585 H         1 <1>         0.147800 
     42 H           2.574895   -3.725409   -5.342515 H         1 <1>         0.162000 
     43 H           3.856907   -2.927436   -0.210466 H         1 <1>         0.126500 
     44 H           2.623064   -3.481704    2.530157 H         1 <1>         0.187200 
     45 H           3.756294   -2.166100    2.160032 H         1 <1>         0.134200 
     46 H           4.283547   -3.853307    2.021470 H         1 <1>         0.139100 
     47 H           3.445384   -5.327639    0.136292 H         1 <1>         0.137600 
     48 H           2.355866   -4.681953   -1.104424 H         1 <1>         0.145100 
     49 H           1.744968   -5.001477    0.533735 H         1 <1>         0.183500 
     50 H          -1.215629   -1.492456    1.070016 H         1 <1>         0.355100 
     51 H          -0.853726    4.412918   -0.615686 H         1 <1>         0.137500 
     52 H          -2.444225    6.236832   -1.026981 H         1 <1>         0.135700 
@<TRIPOS>BOND
     1   19   42 1    
     2    4   34 1    
     3    5   35 1    
     4   20   21 1    
     5   25   49 1    
     6   25   48 1    
     7   20   19 ar   
     8   19   18 ar   
     9    5    4 ar   
    10    4    3 ar   
    11   28   50 1    
    12   18   41 1    
    13    6    5 ar   
    14   26   27 2    
    15   25   47 1    
    16   23   25 1    
    17   15   20 ar   
    18   26   28 ar   
    19    9   28 ar   
    20   18   17 ar   
    21   22   26 ar   
    22    9    8 1    
    23    8    7 1    
    24    7   37 1    
    25    3    2 1    
    26    2    1 1    
    27   10    9 ar   
    28    3   30 ar   
    29    7    6 1    
    30    6   29 ar   
    31    7   36 1    
    32   22   23 1    
    33   11   22 ar   
    34    1   32 1    
    35   11   10 ar   
    36   23   43 1    
    37   23   24 1    
    38   15   16 ar   
    39   12   15 1    
    40   11   12 1    
    41   17   40 1    
    42   17   16 ar   
    43    1   31 1    
    44    1   33 1    
    45   24   44 1    
    46   30   29 ar   
    47   30   52 1    
    48   29   51 1    
    49   16   39 1    
    50   12   13 1    
    51   12   38 1    
    52   24   46 1    
    53   24   45 1    
    54   13   14 3    
@<TRIPOS>SUBSTRUCTURE
     1 ****       34 TEMP              0 ****  ****    0 ROOT 
