#	Name:			WHQ-2013-BMC-6477-3-7b
#	Creating user name:	Administrator
#	Creation time:		Sun Jul 05 16:56:39 2020

#	Modifying user name:	Administrator
#	Modification time:	Sun Jul 05 16:57:59 2020

@<TRIPOS>MOLECULE
WHQ-2013-BMC-6477-3-7b
   44    46     1     0     0
SMALL
MULLIKEN_CHARGES
INVALID_CHARGES
Gaussian 16 #p B3LYP/6-31G* opt
@<TRIPOS>ATOM
      1 C          -5.270938    6.388269   -3.400153 C.3       1 <1>        -0.218200 
      2 O          -4.344190    6.362816   -2.324769 O.3       1 <1>        -0.503300 
      3 C          -3.506966    5.293595   -2.216824 C.ar      1 <1>         0.379500 
      4 C          -2.613889    5.327156   -1.134056 C.ar      1 <1>        -0.170800 
      5 C          -1.718131    4.286347   -0.938194 C.ar      1 <1>        -0.166600 
      6 C          -1.680315    3.186608   -1.811802 C.ar      1 <1>         0.138400 
      7 C          -0.704372    2.062552   -1.596771 C.3       1 <1>        -0.491900 
      8 S          -1.459712    0.811461   -0.445307 S.3       1 <1>         0.155600 
      9 C          -0.122495   -0.343987   -0.288036 C.ar      1 <1>         0.323000 
     10 N           0.980008   -0.219190   -0.965164 N.ar      1 <1>        -0.519900 
     11 C           1.973679   -1.156274   -0.749192 C.ar      1 <1>         0.148100 
     12 C           3.255087   -0.870069   -1.505290 C.2       1 <1>         0.359100 
     13 O           4.327676   -0.941453   -0.920825 O.2       1 <1>        -0.456800 
     14 C           3.196770   -0.494607   -2.951868 C.ar      1 <1>         0.086900 
     15 C           2.067437   -0.701878   -3.758204 C.ar      1 <1>        -0.151100 
     16 C           2.096583   -0.390180   -5.115632 C.ar      1 <1>        -0.141800 
     17 C           3.262451    0.143227   -5.665383 C.ar      1 <1>        -0.058100 
     18 CL          3.300018    0.550241   -7.372335 Cl        1 <1>        -0.010300 
     19 C           4.400791    0.357115   -4.885064 C.ar      1 <1>        -0.133500 
     20 C           4.362077    0.027713   -3.535137 C.ar      1 <1>        -0.152900 
     21 C           1.867952   -2.223714    0.108716 C.ar      1 <1>         0.057000 
     22 C           2.915505   -3.266012    0.376962 C.3       1 <1>        -0.505200 
     23 C           0.615200   -2.385236    0.848142 C.ar      1 <1>         0.581000 
     24 O           0.348481   -3.279178    1.639079 O.2       1 <1>        -0.510400 
     25 N          -0.331458   -1.371412    0.586034 N.ar      1 <1>        -0.649400 
     26 C          -2.577291    3.165425   -2.883003 C.ar      1 <1>        -0.173700 
     27 C          -3.485975    4.204214   -3.096095 C.ar      1 <1>        -0.193800 
     28 H          -4.760551    6.383655   -4.372179 H         1 <1>         0.155000 
     29 H          -5.829471    7.319293   -3.290520 H         1 <1>         0.174300 
     30 H          -5.966464    5.540104   -3.352835 H         1 <1>         0.155100 
     31 H          -2.642012    6.181415   -0.465222 H         1 <1>         0.145300 
     32 H          -1.031667    4.325974   -0.095760 H         1 <1>         0.138700 
     33 H          -0.456171    1.544891   -2.524651 H         1 <1>         0.202900 
     34 H           0.226051    2.399046   -1.135585 H         1 <1>         0.207400 
     35 H           1.160332   -1.110902   -3.329209 H         1 <1>         0.155100 
     36 H           1.227579   -0.558149   -5.742706 H         1 <1>         0.158700 
     37 H           5.298271    0.769561   -5.333453 H         1 <1>         0.162700 
     38 H           5.236219    0.168305   -2.907933 H         1 <1>         0.172500 
     39 H           3.371468   -3.101440    1.361208 H         1 <1>         0.180700 
     40 H           3.714593   -3.253927   -0.363541 H         1 <1>         0.169300 
     41 H           2.447706   -4.254871    0.410855 H         1 <1>         0.173700 
     42 H          -1.198611   -1.447972    1.109018 H         1 <1>         0.356500 
     43 H          -2.568833    2.324634   -3.572883 H         1 <1>         0.134100 
     44 H          -4.161729    4.154806   -3.942021 H         1 <1>         0.137100 
@<TRIPOS>BOND
     1   16   36 1    
     2   26   43 1    
     3   27   44 1    
     4    1   30 1    
     5   15   35 1    
     6   15   16 ar   
     7   16   17 ar   
     8   25   42 1    
     9   23   24 2    
    10   22   41 1    
    11   17   18 1    
    12   26   27 ar   
    13    6   26 ar   
    14   14   15 ar   
    15   27    3 ar   
    16   23   25 ar   
    17    9   25 ar   
    18    1   28 1    
    19   21   23 ar   
    20    1   29 1    
    21    2    1 1    
    22    9    8 1    
    23    8    7 1    
    24   10    9 ar   
    25    7   33 1    
    26   17   19 ar   
    27   21   22 1    
    28   11   21 ar   
    29   22   40 1    
    30   22   39 1    
    31   11   10 ar   
    32   12   11 1    
    33    7    6 1    
    34    7   34 1    
    35    6    5 ar   
    36    3    2 1    
    37    3    4 ar   
    38   14   12 1    
    39   14   20 ar   
    40   12   13 2    
    41   19   20 ar   
    42   19   37 1    
    43   20   38 1    
    44    5    4 ar   
    45    5   32 1    
    46    4   31 1    
@<TRIPOS>SUBSTRUCTURE
     1 ****       36 TEMP              0 ****  ****    0 ROOT 
