#	Name:			WHQ-2013-BMC-6477-3-7a
#	Creating user name:	Administrator
#	Creation time:		Sun Jul 05 16:56:39 2020

#	Modifying user name:	Administrator
#	Modification time:	Sun Jul 05 16:57:59 2020

@<TRIPOS>MOLECULE
WHQ-2013-BMC-6477-3-7a
   44    46     1     0     0
SMALL
MULLIKEN_CHARGES
INVALID_CHARGES
Gaussian 16 #p B3LYP/6-31G* opt
@<TRIPOS>ATOM
      1 C          -5.291632    6.355519   -3.425343 C.3       1 <1>        -0.218100 
      2 O          -4.360348    6.343149   -2.353676 O.3       1 <1>        -0.503100 
      3 C          -3.519100    5.277855   -2.239130 C.ar      1 <1>         0.379500 
      4 C          -3.496541    4.181276   -3.109446 C.ar      1 <1>        -0.193900 
      5 C          -2.583741    3.147535   -2.890098 C.ar      1 <1>        -0.173600 
      6 C          -1.684116    3.180500   -1.821245 C.ar      1 <1>         0.138400 
      7 C          -0.704505    2.061190   -1.598639 C.3       1 <1>        -0.492100 
      8 S          -1.459339    0.811660   -0.445116 S.3       1 <1>         0.155800 
      9 C          -0.122469   -0.343904   -0.288207 C.ar      1 <1>         0.323000 
     10 N           0.979923   -0.219098   -0.965317 N.ar      1 <1>        -0.518900 
     11 C           1.973071   -1.156355   -0.749176 C.ar      1 <1>         0.147700 
     12 C           3.253524   -0.870163   -1.505982 C.2       1 <1>         0.361500 
     13 O           4.326846   -0.939323   -0.924756 O.2       1 <1>        -0.452000 
     14 C           3.191340   -0.496356   -2.956468 C.ar      1 <1>         0.084700 
     15 C           2.066289   -0.724371   -3.761721 C.ar      1 <1>        -0.149000 
     16 C           2.107122   -0.412922   -5.120137 C.ar      1 <1>        -0.140000 
     17 C           3.256590    0.137274   -5.688058 C.ar      1 <1>        -0.116900 
     18 C           4.372048    0.359605   -4.877696 C.ar      1 <1>        -0.072900 
     19 CL          5.825584    1.049350   -5.587990 Cl        1 <1>        -0.014200 
     20 C           4.355924    0.040947   -3.526004 C.ar      1 <1>        -0.155700 
     21 C           1.868250   -2.223573    0.109050 C.ar      1 <1>         0.057200 
     22 C           2.916641   -3.264751    0.377991 C.3       1 <1>        -0.505600 
     23 C           0.615184   -2.385224    0.848334 C.ar      1 <1>         0.581400 
     24 O           0.348656   -3.279196    1.639097 O.2       1 <1>        -0.510000 
     25 N          -0.331622   -1.371841    0.585608 N.ar      1 <1>        -0.649500 
     26 C          -1.723409    4.287384   -0.956964 C.ar      1 <1>        -0.166700 
     27 C          -2.623278    5.323504   -1.159115 C.ar      1 <1>        -0.170700 
     28 H          -5.983254    5.504775   -3.367989 H         1 <1>         0.155000 
     29 H          -5.853692    7.285051   -3.321357 H         1 <1>         0.174500 
     30 H          -4.785208    6.344896   -4.399385 H         1 <1>         0.154600 
     31 H          -4.174520    4.122415   -3.952988 H         1 <1>         0.136700 
     32 H          -2.574380    2.300775   -3.572694 H         1 <1>         0.133300 
     33 H          -0.450608    1.540318   -2.523294 H         1 <1>         0.203100 
     34 H           0.222918    2.403509   -1.135555 H         1 <1>         0.207700 
     35 H           1.165972   -1.145290   -3.330643 H         1 <1>         0.151400 
     36 H           1.238615   -0.597983   -5.745843 H         1 <1>         0.144700 
     37 H           3.292904    0.389161   -6.742640 H         1 <1>         0.161100 
     38 H           5.227398    0.195705   -2.900558 H         1 <1>         0.185000 
     39 H           3.715146   -3.253781   -0.363073 H         1 <1>         0.169700 
     40 H           3.373208   -3.098355    1.361668 H         1 <1>         0.181300 
     41 H           2.449376   -4.253952    0.413781 H         1 <1>         0.174100 
     42 H          -1.198844   -1.448536    1.108293 H         1 <1>         0.356700 
     43 H          -1.034969    4.336421   -0.116594 H         1 <1>         0.139100 
     44 H          -2.652593    6.183240   -0.497311 H         1 <1>         0.145600 
@<TRIPOS>BOND
     1   16   36 1    
     2   16   17 ar   
     3   15   16 ar   
     4    5   32 1    
     5   17   37 1    
     6   15   35 1    
     7    4   31 1    
     8    1   28 1    
     9   18   17 ar   
    10   14   15 ar   
    11    1   30 1    
    12    4    5 ar   
    13    5    6 ar   
    14    3    4 ar   
    15   22   41 1    
    16    1   29 1    
    17    2    1 1    
    18   25   42 1    
    19   23   24 2    
    20    7   33 1    
    21   25   23 ar   
    22    9   25 ar   
    23   23   21 ar   
    24    8    9 1    
    25    7    8 1    
    26    9   10 ar   
    27   20   18 ar   
    28   18   19 1    
    29   14   20 ar   
    30   12   14 1    
    31   21   22 1    
    32   11   21 ar   
    33   22   39 1    
    34   22   40 1    
    35   10   11 ar   
    36   11   12 1    
    37    6    7 1    
    38    7   34 1    
    39    6   26 ar   
    40    3    2 1    
    41    3   27 ar   
    42   20   38 1    
    43   12   13 2    
    44   26   27 ar   
    45   26   43 1    
    46   27   44 1    
@<TRIPOS>SUBSTRUCTURE
     1 ****       42 TEMP              0 ****  ****    0 ROOT 
