#	Name:			WHQ-2013-BMC-6477-3-7n
#	Creating user name:	Administrator
#	Creation time:		Sun Jul 05 16:56:40 2020

#	Modifying user name:	Administrator
#	Modification time:	Sun Jul 05 16:57:59 2020

@<TRIPOS>MOLECULE
WHQ-2013-BMC-6477-3-7n
   56    58     1     0     0
SMALL
MULLIKEN_CHARGES
INVALID_CHARGES
Gaussian 16 #p B3LYP/6-31G* opt
@<TRIPOS>ATOM
      1 C           3.350082    5.876258    2.345254 C.3       1 <1>        -0.216100 
      2 O           1.969107    5.976402    2.034375 O.3       1 <1>        -0.506700 
      3 C           1.421577    5.029581    1.218196 C.ar      1 <1>         0.377600 
      4 C           2.124516    3.960033    0.652391 C.ar      1 <1>        -0.200400 
      5 C           1.459706    3.049742   -0.172838 C.ar      1 <1>        -0.200800 
      6 C           0.094499    3.186134   -0.448069 C.ar      1 <1>         0.177400 
      7 C          -0.618788    2.212261   -1.342540 C.3       1 <1>        -0.526900 
      8 S          -1.463987    0.804019   -0.452744 S.3       1 <1>         0.141700 
      9 C          -0.117438   -0.339524   -0.283925 C.ar      1 <1>         0.343200 
     10 N           0.986843   -0.215012   -0.956678 N.ar      1 <1>        -0.504200 
     11 C           1.970050   -1.157503   -0.749850 C.ar      1 <1>         0.135300 
     12 C           3.249967   -0.815042   -1.500374 C.2       1 <1>         0.349100 
     13 O           3.840567    0.209100   -1.185927 O.2       1 <1>        -0.452900 
     14 C           3.723515   -1.688770   -2.606356 C.ar      1 <1>         0.084200 
     15 C           2.970141   -2.765235   -3.100014 C.ar      1 <1>        -0.173800 
     16 C           3.446032   -3.530553   -4.158739 C.ar      1 <1>        -0.192500 
     17 C           4.686694   -3.262371   -4.764652 C.ar      1 <1>         0.189600 
     18 C           5.175251   -4.138976   -5.930578 C.3       1 <1>         0.012100 
     19 C           5.288061   -5.607617   -5.454884 C.3       1 <1>        -0.440600 
     20 C           4.159627   -4.053056   -7.095433 C.3       1 <1>        -0.440500 
     21 C           6.553082   -3.698329   -6.460346 C.3       1 <1>        -0.459100 
     22 C           5.429549   -2.180862   -4.261466 C.ar      1 <1>        -0.197200 
     23 C           4.957831   -1.405146   -3.207544 C.ar      1 <1>        -0.158800 
     24 C           1.859745   -2.226591    0.101588 C.ar      1 <1>         0.060300 
     25 C           2.926816   -3.247003    0.383995 C.3       1 <1>        -0.513500 
     26 C           0.614229   -2.385729    0.846972 C.ar      1 <1>         0.581600 
     27 O           0.351686   -3.279463    1.640752 O.2       1 <1>        -0.514200 
     28 N          -0.329474   -1.367728    0.588158 N.ar      1 <1>        -0.650800 
     29 C          -0.595141    4.266389    0.127314 C.ar      1 <1>        -0.176600 
     30 C           0.052162    5.177960    0.948670 C.ar      1 <1>        -0.171700 
     31 H           3.579317    4.938345    2.868059 H         1 <1>         0.154900 
     32 H           3.973084    5.946741    1.443864 H         1 <1>         0.153900 
     33 H           3.570352    6.719163    3.002867 H         1 <1>         0.168800 
     34 H           3.183292    3.823148    0.840080 H         1 <1>         0.139900 
     35 H           2.018014    2.220569   -0.597605 H         1 <1>         0.181900 
     36 H           0.052205    1.738485   -2.060236 H         1 <1>         0.225200 
     37 H          -1.442616    2.685132   -1.884528 H         1 <1>         0.187700 
     38 H           2.006394   -3.000386   -2.658808 H         1 <1>         0.146300 
     39 H           2.835762   -4.353338   -4.519249 H         1 <1>         0.134500 
     40 H           6.006122   -5.700070   -4.632117 H         1 <1>         0.150500 
     41 H           5.630268   -6.246251   -6.277977 H         1 <1>         0.143900 
     42 H           4.327308   -6.000342   -5.106399 H         1 <1>         0.145600 
     43 H           4.491944   -4.677506   -7.933439 H         1 <1>         0.143800 
     44 H           3.164375   -4.398292   -6.797325 H         1 <1>         0.145500 
     45 H           4.062683   -3.023084   -7.456833 H         1 <1>         0.151000 
     46 H           6.855501   -4.352887   -7.285163 H         1 <1>         0.145700 
     47 H           6.534691   -2.672022   -6.844272 H         1 <1>         0.148700 
     48 H           7.327849   -3.762328   -5.688047 H         1 <1>         0.148400 
     49 H           6.391402   -1.932777   -4.695370 H         1 <1>         0.136700 
     50 H           5.536025   -0.566846   -2.832283 H         1 <1>         0.162300 
     51 H           3.858016   -3.032132   -0.143255 H         1 <1>         0.158700 
     52 H           2.588590   -4.251212    0.101546 H         1 <1>         0.173600 
     53 H           3.131925   -3.283860    1.459942 H         1 <1>         0.180600 
     54 H          -1.187337   -1.425307    1.128298 H         1 <1>         0.356300 
     55 H          -1.656809    4.395591   -0.073518 H         1 <1>         0.123600 
     56 H          -0.477096    6.016075    1.391295 H         1 <1>         0.137500 
@<TRIPOS>BOND
     1   25   53 1    
     2    1   31 1    
     3   25   51 1    
     4   25   52 1    
     5   24   25 1    
     6    1   33 1    
     7    1   32 1    
     8    2    1 1    
     9   26   27 2    
    10   26   24 ar   
    11   11   24 ar   
    12   19   40 1    
    13    4   34 1    
    14   28   26 ar   
    15   23   50 1    
    16   12   13 2    
    17    3    2 1    
    18   21   48 1    
    19   11   12 1    
    20   12   14 1    
    21   14   23 ar   
    22   23   22 ar   
    23   22   49 1    
    24   10   11 ar   
    25    4    3 ar   
    26    5    4 ar   
    27   14   15 ar   
    28   22   17 ar   
    29   19   41 1    
    30   19   42 1    
    31   18   19 1    
    32   30    3 ar   
    33   28   54 1    
    34    9   28 ar   
    35    5   35 1    
    36   15   38 1    
    37   15   16 ar   
    38   21   46 1    
    39   18   21 1    
    40   21   47 1    
    41   16   17 ar   
    42   17   18 1    
    43    6    5 ar   
    44    9   10 ar   
    45   16   39 1    
    46   18   20 1    
    47    8    9 1    
    48   30   56 1    
    49   29   30 ar   
    50    6   29 ar   
    51    7    6 1    
    52   29   55 1    
    53    8    7 1    
    54   20   43 1    
    55   20   44 1    
    56   20   45 1    
    57    7   36 1    
    58    7   37 1    
@<TRIPOS>SUBSTRUCTURE
     1 ****       50 TEMP              0 ****  ****    0 ROOT 
