#	Name:			WHQ-2014-MCC-5468-3-1j
#	Creating user name:	Administrator
#	Creation time:		Sun Jul 05 16:56:41 2020

#	Modifying user name:	Administrator
#	Modification time:	Sun Jul 05 16:57:59 2020

@<TRIPOS>MOLECULE
WHQ-2014-MCC-5468-3-1j
   49    51     1     0     0
SMALL
MULLIKEN_CHARGES
INVALID_CHARGES
Gaussian 16 #p B3LYP/6-31G* opt
@<TRIPOS>ATOM
      1 C           2.697166   -4.558555   -0.417227 C.3       1 <1>        -0.446500 
      2 C           2.926048   -3.261518    0.381777 C.3       1 <1>        -0.345300 
      3 C           1.870882   -2.214791    0.119162 C.ar      1 <1>         0.052800 
      4 C           1.971575   -1.164170   -0.757507 C.ar      1 <1>         0.240900 
      5 C           3.245146   -0.931823   -1.580639 C.3       1 <1>        -0.344200 
      6 C           2.921653   -0.372593   -2.904750 C.1       1 <1>         0.409900 
      7 N           2.696914    0.055418   -3.960000 N.1       1 <1>        -0.488700 
      8 C           4.266683   -0.035527   -0.864332 C.ar      1 <1>         0.168900 
      9 C           3.850972    1.160862   -0.262917 C.ar      1 <1>        -0.163000 
     10 C           4.753251    1.995523    0.390553 C.ar      1 <1>        -0.126800 
     11 C           6.103066    1.647227    0.453248 C.ar      1 <1>        -0.120100 
     12 C           6.544462    0.469071   -0.143875 C.ar      1 <1>        -0.126600 
     13 C           5.629815   -0.357437   -0.798736 C.ar      1 <1>        -0.129200 
     14 CL          6.260013   -1.823375   -1.553062 Cl        1 <1>        -0.006500 
     15 N           0.989893   -0.219821   -0.960573 N.ar      1 <1>        -0.518300 
     16 C          -0.126188   -0.352370   -0.305006 C.ar      1 <1>         0.336000 
     17 S          -1.457878    0.813780   -0.418170 S.3       1 <1>         0.146400 
     18 C          -1.060043    1.714201   -2.005541 C.3       1 <1>        -0.539400 
     19 C          -1.706722    1.130575   -3.229903 C.ar      1 <1>         0.183300 
     20 C          -0.957673    0.372519   -4.144772 C.ar      1 <1>        -0.196000 
     21 C          -1.551481   -0.160206   -5.281682 C.ar      1 <1>        -0.178500 
     22 C          -2.915258    0.048623   -5.532099 C.ar      1 <1>         0.377500 
     23 O          -3.403230   -0.517374   -6.673392 O.3       1 <1>        -0.503700 
     24 C          -4.775798   -0.335778   -6.981706 C.3       1 <1>        -0.215500 
     25 C          -3.675523    0.805984   -4.631198 C.ar      1 <1>        -0.194500 
     26 C          -3.063844    1.337728   -3.495483 C.ar      1 <1>        -0.181200 
     27 N          -0.340778   -1.382893    0.559602 N.ar      1 <1>        -0.649400 
     28 C           0.617968   -2.378044    0.851431 C.ar      1 <1>         0.588500 
     29 O           0.346180   -3.269221    1.645334 O.2       1 <1>        -0.518600 
     30 H           1.720577   -4.987848   -0.174437 H         1 <1>         0.173800 
     31 H           2.733392   -4.377485   -1.497884 H         1 <1>         0.144000 
     32 H           3.466268   -5.298937   -0.171809 H         1 <1>         0.151900 
     33 H           2.893304   -3.501331    1.450043 H         1 <1>         0.175500 
     34 H           3.925355   -2.865930    0.176856 H         1 <1>         0.154600 
     35 H           3.714679   -1.899972   -1.767902 H         1 <1>         0.220000 
     36 H           2.800796    1.429201   -0.318473 H         1 <1>         0.170400 
     37 H           4.402340    2.915749    0.847960 H         1 <1>         0.145200 
     38 H           6.816056    2.289998    0.961437 H         1 <1>         0.147000 
     39 H           7.590504    0.184771   -0.110418 H         1 <1>         0.161300 
     40 H          -1.407009    2.731263   -1.801680 H         1 <1>         0.192200 
     41 H           0.029009    1.721369   -2.075472 H         1 <1>         0.231700 
     42 H           0.102897    0.211151   -3.974784 H         1 <1>         0.182100 
     43 H          -0.974013   -0.738685   -5.995802 H         1 <1>         0.146800 
     44 H          -5.424537   -0.760900   -6.204280 H         1 <1>         0.152100 
     45 H          -4.944158   -0.866134   -7.920748 H         1 <1>         0.171600 
     46 H          -5.023030    0.725696   -7.116091 H         1 <1>         0.152200 
     47 H          -4.729708    0.989725   -4.804068 H         1 <1>         0.132100 
     48 H          -3.665080    1.925128   -2.804245 H         1 <1>         0.124200 
     49 H          -1.236816   -1.495068    1.024107 H         1 <1>         0.358900 
@<TRIPOS>BOND
     1    1   32 1    
     2    1   31 1    
     3    1   30 1    
     4    2    1 1    
     5   24   45 1    
     6   21   43 1    
     7   13   14 1    
     8   23   24 1    
     9   22   23 1    
    10    5   35 1    
    11   24   44 1    
    12   24   46 1    
    13    2   34 1    
    14    2   33 1    
    15    3    2 1    
    16   21   22 ar   
    17   20   21 ar   
    18    6    7 3    
    19   25   22 ar   
    20    5    6 1    
    21    4    5 1    
    22    5    8 1    
    23    4    3 ar   
    24   28    3 ar   
    25   28   29 2    
    26   20   42 1    
    27   15    4 ar   
    28   27   28 ar   
    29   19   20 ar   
    30    8   13 ar   
    31   13   12 ar   
    32    8    9 ar   
    33   12   39 1    
    34   25   47 1    
    35   26   25 ar   
    36   16   15 ar   
    37   27   49 1    
    38   16   27 ar   
    39   12   11 ar   
    40   17   16 1    
    41   19   26 ar   
    42   18   19 1    
    43   26   48 1    
    44    9   36 1    
    45    9   10 ar   
    46   18   41 1    
    47   18   17 1    
    48   18   40 1    
    49   11   10 ar   
    50   11   38 1    
    51   10   37 1    
@<TRIPOS>SUBSTRUCTURE
     1 ****       43 TEMP              0 ****  ****    0 ROOT 
