#	Name:			WHQ-2013-BMC-6477-3-7q
#	Creating user name:	Administrator
#	Creation time:		Sun Jul 05 16:56:40 2020

#	Modifying user name:	Administrator
#	Modification time:	Sun Jul 05 16:57:59 2020

@<TRIPOS>MOLECULE
WHQ-2013-BMC-6477-3-7q
   42    45     1     0     0
SMALL
MULLIKEN_CHARGES
INVALID_CHARGES
Gaussian 16 #p B3LYP/6-31G* opt
@<TRIPOS>ATOM
      1 C          -4.640531    7.198977   -2.267604 C.3       1 <1>        -0.217700 
      2 O          -4.588143    5.961033   -2.960412 O.3       1 <1>        -0.503800 
      3 C          -3.635744    5.056274   -2.597740 C.ar      1 <1>         0.379100 
      4 C          -2.690850    5.255323   -1.583968 C.ar      1 <1>        -0.194200 
      5 C          -1.760282    4.252415   -1.304157 C.ar      1 <1>        -0.173800 
      6 C          -1.744326    3.050095   -2.016284 C.ar      1 <1>         0.138700 
      7 C          -0.733215    1.980822   -1.707009 C.3       1 <1>        -0.492800 
      8 S          -1.453441    0.805255   -0.455452 S.3       1 <1>         0.154000 
      9 C          -0.115399   -0.344458   -0.288338 C.ar      1 <1>         0.327700 
     10 N           0.989843   -0.206638   -0.954698 N.ar      1 <1>        -0.516400 
     11 C           1.967859   -1.152759   -0.754299 C.ar      1 <1>         0.175400 
     12 C           1.847126   -2.220717    0.098548 C.ar      1 <1>         0.047100 
     13 C           0.608791   -2.386388    0.854231 C.ar      1 <1>         0.592100 
     14 O           0.360661   -3.285101    1.646812 O.2       1 <1>        -0.509200 
     15 N          -0.333786   -1.376724    0.587469 N.ar      1 <1>        -0.658600 
     16 C           2.907891   -3.251453    0.319687 C.3       1 <1>        -0.424000 
     17 C           4.157924   -3.030602   -0.483171 C.ar      1 <1>         0.046000 
     18 C           5.228529   -3.921775   -0.370487 C.ar      1 <1>         0.335700 
     19 F           5.097346   -4.968343    0.471823 F         1 <1>        -0.287100 
     20 C           6.411346   -3.782970   -1.078035 C.ar      1 <1>        -0.266900 
     21 C           6.520787   -2.692631   -1.941563 C.ar      1 <1>         0.396300 
     22 F           7.663871   -2.543216   -2.636757 F         1 <1>        -0.291100 
     23 C           5.499431   -1.774926   -2.099124 C.ar      1 <1>        -0.245100 
     24 C           4.315811   -1.948739   -1.365080 C.ar      1 <1>         0.041100 
     25 C           3.226398   -0.946461   -1.550215 C.2       1 <1>         0.366400 
     26 O           3.346558   -0.000041   -2.311889 O.2       1 <1>        -0.459700 
     27 C          -2.701663    2.867535   -3.028178 C.ar      1 <1>        -0.166900 
     28 C          -3.634127    3.852456   -3.319735 C.ar      1 <1>        -0.171000 
     29 H          -4.838411    7.054007   -1.197408 H         1 <1>         0.154600 
     30 H          -5.465233    7.756557   -2.714563 H         1 <1>         0.173500 
     31 H          -3.709745    7.768580   -2.389002 H         1 <1>         0.154900 
     32 H          -2.667181    6.177018   -1.014251 H         1 <1>         0.136500 
     33 H          -1.029494    4.417985   -0.515990 H         1 <1>         0.136500 
     34 H          -0.464958    1.388594   -2.583474 H         1 <1>         0.214000 
     35 H           0.185627    2.383581   -1.278075 H         1 <1>         0.212000 
     36 H          -1.210945   -1.456819    1.093057 H         1 <1>         0.358300 
     37 H           3.146281   -3.296930    1.392502 H         1 <1>         0.202900 
     38 H           2.490297   -4.247090    0.109488 H         1 <1>         0.203000 
     39 H           7.219508   -4.495787   -0.963447 H         1 <1>         0.170400 
     40 H           5.595777   -0.931787   -2.772834 H         1 <1>         0.180100 
     41 H          -2.710474    1.940632   -3.596786 H         1 <1>         0.137900 
     42 H          -4.371222    3.717799   -4.105014 H         1 <1>         0.144100 
@<TRIPOS>BOND
     1   28   42 1    
     2   27   41 1    
     3   27   28 ar   
     4   28    3 ar   
     5    6   27 ar   
     6    7   34 1    
     7   16   38 1    
     8    3    2 1    
     9    2    1 1    
    10    3    4 ar   
    11    7    6 1    
    12    6    5 ar   
    13    8    7 1    
    14    7   35 1    
    15   25   26 2    
    16    9    8 1    
    17   23   40 1    
    18   10    9 ar   
    19   11   10 ar   
    20   11   25 1    
    21   25   24 1    
    22   15    9 ar   
    23   24   23 ar   
    24   23   21 ar   
    25   21   22 1    
    26   12   11 ar   
    27   24   17 ar   
    28   21   20 ar   
    29   15   36 1    
    30   13   15 ar   
    31   12   13 ar   
    32   12   16 1    
    33   17   16 1    
    34   17   18 ar   
    35   20   18 ar   
    36   20   39 1    
    37   13   14 2    
    38   16   37 1    
    39   18   19 1    
    40    1   30 1    
    41    1   31 1    
    42    1   29 1    
    43    4    5 ar   
    44    4   32 1    
    45    5   33 1    
@<TRIPOS>SUBSTRUCTURE
     1 ****       40 TEMP              0 ****  ****    0 ROOT 
