#	Name:			WHQ-2014-MCC-5468-3-1n
#	Creating user name:	Administrator
#	Creation time:		Sun Jul 05 16:56:42 2020

#	Modifying user name:	Administrator
#	Modification time:	Sun Jul 05 16:57:59 2020

@<TRIPOS>MOLECULE
WHQ-2014-MCC-5468-3-1n
   52    54     1     0     0
SMALL
MULLIKEN_CHARGES
INVALID_CHARGES
Gaussian 16 #p B3LYP/6-31G* opt
@<TRIPOS>ATOM
      1 C          -8.058704    3.981121   -0.692895 C.3       1 <1>        -0.219800 
      2 O          -7.000084    4.121215    0.244064 O.3       1 <1>        -0.502300 
      3 C          -6.027660    3.169700    0.270163 C.ar      1 <1>         0.381900 
      4 C          -5.991787    2.041653   -0.559027 C.ar      1 <1>        -0.194300 
      5 C          -4.940854    1.130901   -0.437365 C.ar      1 <1>        -0.169600 
      6 C          -3.921123    1.315364    0.499887 C.ar      1 <1>         0.141400 
      7 C          -2.788637    0.328501    0.615355 C.3       1 <1>        -0.547300 
      8 S          -1.409470    0.865179   -0.509982 S.3       1 <1>         0.222600 
      9 C          -0.156065   -0.363852   -0.256025 C.ar      1 <1>         0.330500 
     10 N           0.946402   -0.212608   -0.934335 N.ar      1 <1>        -0.531900 
     11 C           1.943729   -1.143927   -0.760047 C.ar      1 <1>         0.213700 
     12 C           3.164350   -0.808666   -1.641056 C.3       1 <1>        -0.303900 
     13 C           3.510043   -1.915728   -2.543550 C.1       1 <1>         0.374300 
     14 N           3.777853   -2.776579   -3.275158 N.1       1 <1>        -0.494300 
     15 C           4.365216   -0.269801   -0.850280 C.ar      1 <1>         0.156200 
     16 C           5.651311   -0.801853   -0.971860 C.ar      1 <1>        -0.181800 
     17 C           6.719466   -0.259159   -0.254551 C.ar      1 <1>        -0.136000 
     18 C           6.493406    0.825943    0.587487 C.ar      1 <1>        -0.061100 
     19 CL          7.831759    1.515204    1.494976 Cl        1 <1>        -0.018600 
     20 C           5.218485    1.377701    0.719363 C.ar      1 <1>        -0.134600 
     21 C           4.162141    0.827134   -0.001891 C.ar      1 <1>        -0.164800 
     22 C           1.879562   -2.217736    0.100165 C.ar      1 <1>         0.075900 
     23 C           2.999854   -3.220745    0.326235 C.3       1 <1>        -0.148400 
     24 C           2.601625   -4.638772   -0.131104 C.3       1 <1>        -0.458500 
     25 C           3.483621   -3.210610    1.791306 C.3       1 <1>        -0.457800 
     26 C           0.641087   -2.400338    0.850789 C.ar      1 <1>         0.582300 
     27 O           0.363907   -3.289975    1.647095 O.2       1 <1>        -0.519800 
     28 N          -0.337497   -1.404274    0.596614 N.ar      1 <1>        -0.649100 
     29 C          -3.969860    2.453976    1.320619 C.ar      1 <1>        -0.163600 
     30 C          -5.006734    3.368961    1.213229 C.ar      1 <1>        -0.170900 
     31 H          -8.631861    3.061398   -0.517853 H         1 <1>         0.155900 
     32 H          -7.685312    3.984824   -1.725076 H         1 <1>         0.157300 
     33 H          -8.707482    4.845134   -0.540485 H         1 <1>         0.176400 
     34 H          -6.767944    1.862213   -1.293688 H         1 <1>         0.140700 
     35 H          -4.922557    0.259457   -1.087776 H         1 <1>         0.138400 
     36 H          -2.410398    0.293518    1.642074 H         1 <1>         0.192500 
     37 H          -3.117388   -0.671732    0.315509 H         1 <1>         0.192500 
     38 H           2.806231    0.001980   -2.287752 H         1 <1>         0.229600 
     39 H           5.831987   -1.644258   -1.632980 H         1 <1>         0.166900 
     40 H           7.715719   -0.676987   -0.351529 H         1 <1>         0.162600 
     41 H           5.057366    2.227239    1.374280 H         1 <1>         0.159800 
     42 H           3.169579    1.258684    0.092769 H         1 <1>         0.159300 
     43 H           3.849529   -2.912273   -0.288428 H         1 <1>         0.136100 
     44 H           1.750159   -5.009644    0.445212 H         1 <1>         0.175500 
     45 H           2.342705   -4.649922   -1.195061 H         1 <1>         0.156800 
     46 H           3.443784   -5.324935    0.016053 H         1 <1>         0.142200 
     47 H           2.689606   -3.534351    2.468528 H         1 <1>         0.179800 
     48 H           4.334213   -3.892836    1.903604 H         1 <1>         0.142400 
     49 H           3.813411   -2.209377    2.090836 H         1 <1>         0.142600 
     50 H          -1.197533   -1.534982    1.116572 H         1 <1>         0.356300 
     51 H          -3.185341    2.622495    2.054589 H         1 <1>         0.138200 
     52 H          -5.052221    4.247234    1.849058 H         1 <1>         0.148200 
@<TRIPOS>BOND
     1   25   47 1    
     2   25   48 1    
     3   25   49 1    
     4   26   27 2    
     5   23   25 1    
     6   29   51 1    
     7    7   36 1    
     8   30   52 1    
     9   28   50 1    
    10   26   28 ar   
    11   22   26 ar   
    12   29   30 ar   
    13    6   29 ar   
    14   24   44 1    
    15   30    3 ar   
    16   18   19 1    
    17   20   41 1    
    18    9   28 ar   
    19    7   37 1    
    20    7    6 1    
    21    8    7 1    
    22   23   24 1    
    23   22   23 1    
    24   23   43 1    
    25   24   46 1    
    26    6    5 ar   
    27   24   45 1    
    28   11   22 ar   
    29   20   18 ar   
    30   21   20 ar   
    31   17   18 ar   
    32    3    2 1    
    33    4    3 ar   
    34    2    1 1    
    35    9    8 1    
    36   10    9 ar   
    37   21   42 1    
    38   15   21 ar   
    39    5    4 ar   
    40    5   35 1    
    41   17   40 1    
    42   16   17 ar   
    43    1   31 1    
    44    4   34 1    
    45   11   10 ar   
    46   12   11 1    
    47    1   33 1    
    48    1   32 1    
    49   15   16 ar   
    50   15   12 1    
    51   16   39 1    
    52   12   38 1    
    53   12   13 1    
    54   13   14 3    
@<TRIPOS>SUBSTRUCTURE
     1 ****       41 TEMP              0 ****  ****    0 ROOT 
