#	Name:			WHQ-2014-MCC-5468-3-1p
#	Creating user name:	Administrator
#	Creation time:		Sun Jul 05 16:56:42 2020

#	Modifying user name:	Administrator
#	Modification time:	Sun Jul 05 16:57:59 2020

@<TRIPOS>MOLECULE
WHQ-2014-MCC-5468-3-1p
   52    54     1     0     0
SMALL
MULLIKEN_CHARGES
INVALID_CHARGES
Gaussian 16 #p B3LYP/6-31G* opt
@<TRIPOS>ATOM
      1 C          -5.638670    5.675166   -4.030179 C.3       1 <1>        -0.217900 
      2 O          -4.700949    5.878839   -2.983926 O.3       1 <1>        -0.503900 
      3 C          -3.787887    4.898855   -2.733182 C.ar      1 <1>         0.379500 
      4 C          -3.700646    3.691003   -3.436708 C.ar      1 <1>        -0.194600 
      5 C          -2.718771    2.761576   -3.089377 C.ar      1 <1>        -0.171400 
      6 C          -1.812876    3.008751   -2.053754 C.ar      1 <1>         0.138100 
      7 C          -0.756604    2.001439   -1.691058 C.3       1 <1>        -0.504300 
      8 S          -1.462882    0.805003   -0.450455 S.3       1 <1>         0.161900 
      9 C          -0.125529   -0.343767   -0.284493 C.ar      1 <1>         0.329100 
     10 N           0.983523   -0.216016   -0.947475 N.ar      1 <1>        -0.516700 
     11 C           1.971701   -1.153040   -0.750033 C.ar      1 <1>         0.244800 
     12 C           3.227834   -0.811277   -1.572968 C.3       1 <1>        -0.327500 
     13 C           2.878034   -0.740850   -3.001321 C.1       1 <1>         0.372900 
     14 N           2.610162   -0.694033   -4.129626 N.1       1 <1>        -0.471000 
     15 C           3.859198    0.490302   -1.067972 C.ar      1 <1>         0.161600 
     16 C           4.918430    0.439271   -0.156781 C.ar      1 <1>        -0.168900 
     17 C           5.448708    1.617533    0.371142 C.ar      1 <1>        -0.133100 
     18 C           4.923525    2.857516    0.006424 C.ar      1 <1>        -0.141400 
     19 C           3.869409    2.892322   -0.904409 C.ar      1 <1>         0.070000 
     20 BR          3.101750    4.573799   -1.400474 Br        1 <1>        -0.124300 
     21 C           3.340482    1.729953   -1.455147 C.ar      1 <1>        -0.168000 
     22 C           1.873202   -2.235810    0.092348 C.ar      1 <1>         0.054500 
     23 C           2.945426   -3.292178    0.323165 C.3       1 <1>        -0.153100 
     24 C           3.452987   -3.284401    1.780365 C.3       1 <1>        -0.456000 
     25 C           2.469793   -4.697275   -0.101023 C.3       1 <1>        -0.454600 
     26 C           0.621698   -2.383978    0.843523 C.ar      1 <1>         0.587500 
     27 O           0.338078   -3.266378    1.645959 O.2       1 <1>        -0.519600 
     28 N          -0.328136   -1.373544    0.584900 N.ar      1 <1>        -0.649900 
     29 C          -1.916090    4.224632   -1.358423 C.ar      1 <1>        -0.168900 
     30 C          -2.886092    5.159949   -1.690063 C.ar      1 <1>        -0.171100 
     31 H          -6.271150    4.798166   -3.839891 H         1 <1>         0.154700 
     32 H          -6.261488    6.571084   -4.051213 H         1 <1>         0.173300 
     33 H          -5.140096    5.557158   -5.001159 H         1 <1>         0.155400 
     34 H          -4.380909    3.466899   -4.250213 H         1 <1>         0.137400 
     35 H          -2.658428    1.827441   -3.642913 H         1 <1>         0.140200 
     36 H          -0.428162    1.410347   -2.547961 H         1 <1>         0.216300 
     37 H           0.117776    2.471957   -1.236803 H         1 <1>         0.209800 
     38 H           3.967617   -1.607873   -1.471860 H         1 <1>         0.199200 
     39 H           5.329269   -0.520651    0.145185 H         1 <1>         0.140500 
     40 H           6.274796    1.571981    1.075002 H         1 <1>         0.146800 
     41 H           5.322940    3.777312    0.418962 H         1 <1>         0.158200 
     42 H           2.528723    1.782854   -2.169211 H         1 <1>         0.181600 
     43 H           3.804425   -3.048913   -0.310977 H         1 <1>         0.122400 
     44 H           4.263566   -4.013292    1.897287 H         1 <1>         0.141800 
     45 H           2.649456   -3.547305    2.472083 H         1 <1>         0.187900 
     46 H           3.841049   -2.297491    2.058872 H         1 <1>         0.137300 
     47 H           1.627594   -5.024257    0.512654 H         1 <1>         0.187200 
     48 H           3.287199   -5.418023    0.018408 H         1 <1>         0.141500 
     49 H           2.160553   -4.708378   -1.152317 H         1 <1>         0.143800 
     50 H          -1.196956   -1.465374    1.102326 H         1 <1>         0.356800 
     51 H          -1.219457    4.442051   -0.552283 H         1 <1>         0.140200 
     52 H          -2.965135    6.103658   -1.159977 H         1 <1>         0.143900 
@<TRIPOS>BOND
     1   24   45 1    
     2   30   52 1    
     3   29   51 1    
     4   28   50 1    
     5   24   46 1    
     6   18   41 1    
     7   26   27 2    
     8   17   40 1    
     9   24   44 1    
    10   23   24 1    
    11   26   28 ar   
    12    9   28 ar   
    13   29   30 ar   
    14   30    3 ar   
    15    6   29 ar   
    16   22   26 ar   
    17   17   18 ar   
    18   19   18 ar   
    19    9    8 1    
    20    8    7 1    
    21   16   17 ar   
    22   10    9 ar   
    23    7   37 1    
    24   19   20 1    
    25    3    2 1    
    26    2    1 1    
    27   21   19 ar   
    28    3    4 ar   
    29   16   39 1    
    30   15   16 ar   
    31   22   23 1    
    32   11   22 ar   
    33    7    6 1    
    34    6    5 ar   
    35    7   36 1    
    36   23   43 1    
    37   23   25 1    
    38   11   10 ar   
    39   25   47 1    
    40    1   32 1    
    41   12   11 1    
    42   15   21 ar   
    43   21   42 1    
    44    1   31 1    
    45   15   12 1    
    46    1   33 1    
    47   25   48 1    
    48   25   49 1    
    49    4    5 ar   
    50    4   34 1    
    51    5   35 1    
    52   12   38 1    
    53   12   13 1    
    54   13   14 3    
@<TRIPOS>SUBSTRUCTURE
     1 ****       41 TEMP              0 ****  ****    0 ROOT 
