#	Name:			WHQ-2013-BMC-6477-3-7f
#	Creating user name:	Administrator
#	Creation time:		Sun Jul 05 16:56:39 2020

#	Modifying user name:	Administrator
#	Modification time:	Sun Jul 05 16:57:59 2020

@<TRIPOS>MOLECULE
WHQ-2013-BMC-6477-3-7f
   44    46     1     0     0
SMALL
MULLIKEN_CHARGES
INVALID_CHARGES
Gaussian 16 #p B3LYP/6-31G* opt
@<TRIPOS>ATOM
      1 C          -7.325222    5.035907    0.746609 C.3       1 <1>        -0.219300 
      2 O          -7.162039    3.891811   -0.079182 O.3       1 <1>        -0.502600 
      3 C          -6.090658    3.081524    0.140961 C.ar      1 <1>         0.381400 
      4 C          -5.128770    3.283205    1.138592 C.ar      1 <1>        -0.194400 
      5 C          -4.073000    2.379284    1.269670 C.ar      1 <1>        -0.169700 
      6 C          -3.954332    1.269752    0.428999 C.ar      1 <1>         0.141900 
      7 C          -2.805492    0.306177    0.576713 C.3       1 <1>        -0.547300 
      8 S          -1.408545    0.867093   -0.513474 S.3       1 <1>         0.221900 
      9 C          -0.153144   -0.363106   -0.259530 C.ar      1 <1>         0.323500 
     10 N           0.943085   -0.217431   -0.944191 N.ar      1 <1>        -0.515600 
     11 C           1.949548   -1.138167   -0.750066 C.ar      1 <1>         0.146100 
     12 C           3.225903   -0.832681   -1.508841 C.2       1 <1>         0.362300 
     13 O           4.299394   -0.949578   -0.933390 O.2       1 <1>        -0.457800 
     14 C           3.172566   -0.395407   -2.940616 C.ar      1 <1>         0.080500 
     15 C           4.363660    0.080364   -3.513794 C.ar      1 <1>        -0.154600 
     16 C           4.399521    0.456126   -4.853230 C.ar      1 <1>        -0.135500 
     17 C           3.254919    0.350526   -5.647601 C.ar      1 <1>        -0.185800 
     18 C           2.087809   -0.132388   -5.067087 C.ar      1 <1>         0.378000 
     19 F           0.978754   -0.243289   -5.829342 F         1 <1>        -0.297600 
     20 C           2.019178   -0.503575   -3.731628 C.ar      1 <1>        -0.224500 
     21 C           1.869383   -2.218506    0.099617 C.ar      1 <1>         0.058000 
     22 C           2.935831   -3.248645    0.344176 C.3       1 <1>        -0.503200 
     23 C           0.631878   -2.400619    0.851772 C.ar      1 <1>         0.578200 
     24 O           0.376435   -3.299296    1.642567 O.2       1 <1>        -0.515600 
     25 N          -0.336985   -1.397497    0.607579 N.ar      1 <1>        -0.650400 
     26 C          -4.924840    1.084953   -0.569232 C.ar      1 <1>        -0.163400 
     27 C          -5.980529    1.972959   -0.713495 C.ar      1 <1>        -0.171000 
     28 H          -6.474649    5.723625    0.653987 H         1 <1>         0.157000 
     29 H          -7.452490    4.756805    1.800669 H         1 <1>         0.155300 
     30 H          -8.230594    5.531785    0.392956 H         1 <1>         0.175600 
     31 H          -5.190733    4.129428    1.812849 H         1 <1>         0.139700 
     32 H          -3.330733    2.546974    2.046775 H         1 <1>         0.137600 
     33 H          -2.455859    0.281867    1.613823 H         1 <1>         0.190900 
     34 H          -3.106538   -0.701556    0.272189 H         1 <1>         0.191400 
     35 H           5.247638    0.143529   -2.889238 H         1 <1>         0.164800 
     36 H           5.321589    0.830269   -5.288772 H         1 <1>         0.145000 
     37 H           3.254774    0.632889   -6.695457 H         1 <1>         0.152100 
     38 H           1.079111   -0.854870   -3.327320 H         1 <1>         0.164200 
     39 H           2.470571   -4.230484    0.471381 H         1 <1>         0.173000 
     40 H           3.672105   -3.283574   -0.458678 H         1 <1>         0.167900 
     41 H           3.475628   -3.028283    1.273554 H         1 <1>         0.179800 
     42 H          -1.192523   -1.509899    1.138901 H         1 <1>         0.355700 
     43 H          -4.851372    0.232148   -1.240053 H         1 <1>         0.138800 
     44 H          -6.736099    1.831447   -1.479566 H         1 <1>         0.147600 
@<TRIPOS>BOND
     1    1   28 1    
     2    4   31 1    
     3   15   35 1    
     4    5   32 1    
     5   12   13 2    
     6   16   36 1    
     7    1   29 1    
     8   15   16 ar   
     9   14   15 ar   
    10    1   30 1    
    11    2    1 1    
    12    5    4 ar   
    13    4    3 ar   
    14    6    5 ar   
    15   16   17 ar   
    16   12   14 1    
    17   11   12 1    
    18   22   41 1    
    19   14   20 ar   
    20   10   11 ar   
    21    9   10 ar   
    22   11   21 ar   
    23    7   33 1    
    24    8    9 1    
    25    7    8 1    
    26    9   25 ar   
    27    3    2 1    
    28    3   27 ar   
    29   17   37 1    
    30   17   18 ar   
    31   21   22 1    
    32   21   23 ar   
    33    6    7 1    
    34    6   26 ar   
    35   22   40 1    
    36   22   39 1    
    37    7   34 1    
    38   25   23 ar   
    39   25   42 1    
    40   20   18 ar   
    41   20   38 1    
    42   23   24 2    
    43   18   19 1    
    44   27   26 ar   
    45   27   44 1    
    46   26   43 1    
@<TRIPOS>SUBSTRUCTURE
     1 ****       31 TEMP              0 ****  ****    0 ROOT 
