#	Name:			WHQ-2013-BMC-6477-3-7l
#	Creating user name:	Administrator
#	Creation time:		Sun Jul 05 16:56:40 2020

#	Modifying user name:	Administrator
#	Modification time:	Sun Jul 05 16:57:59 2020

@<TRIPOS>MOLECULE
WHQ-2013-BMC-6477-3-7l
   50    52     1     0     0
SMALL
MULLIKEN_CHARGES
INVALID_CHARGES
Gaussian 16 #p B3LYP/6-31G* opt
@<TRIPOS>ATOM
      1 C          -6.602436   -4.460772    0.152454 C.3       1 <1>        -0.220200 
      2 O          -5.832621   -3.994742    1.252047 O.3       1 <1>        -0.501500 
      3 C          -5.071871   -2.879458    1.085526 C.ar      1 <1>         0.381400 
      4 C          -4.317102   -2.483034    2.197866 C.ar      1 <1>        -0.158400 
      5 C          -3.507702   -1.355052    2.123771 C.ar      1 <1>        -0.200800 
      6 C          -3.424259   -0.593177    0.945971 C.ar      1 <1>         0.133800 
      7 C          -2.570888    0.655499    0.910745 C.3       1 <1>        -0.546400 
      8 S          -1.413628    0.859686   -0.521626 S.3       1 <1>         0.194500 
      9 C          -0.148574   -0.360544   -0.250306 C.ar      1 <1>         0.325900 
     10 N           0.952057   -0.198309   -0.923340 N.ar      1 <1>        -0.503600 
     11 C           1.934842   -1.151812   -0.769336 C.ar      1 <1>         0.115900 
     12 C           3.094918   -0.953159   -1.729889 C.2       1 <1>         0.371100 
     13 O           3.427551   -1.876691   -2.459214 O.2       1 <1>        -0.456300 
     14 C           3.797683    0.366351   -1.786739 C.ar      1 <1>         0.081400 
     15 C           3.583429    1.390833   -0.852492 C.ar      1 <1>        -0.150400 
     16 C           4.315573    2.575353   -0.935394 C.ar      1 <1>        -0.140100 
     17 C           5.259794    2.755843   -1.946338 C.ar      1 <1>        -0.182500 
     18 C           5.457994    1.727166   -2.864151 C.ar      1 <1>         0.382100 
     19 F           6.371989    1.898443   -3.842081 F         1 <1>        -0.295500 
     20 C           4.752547    0.537958   -2.801232 C.ar      1 <1>        -0.231700 
     21 C           1.877453   -2.220489    0.097440 C.ar      1 <1>         0.072900 
     22 C           2.997063   -3.229931    0.294265 C.3       1 <1>        -0.142400 
     23 C           3.456643   -3.301823    1.765015 C.3       1 <1>        -0.458000 
     24 C           2.598591   -4.618099   -0.246044 C.3       1 <1>        -0.455900 
     25 C           0.640741   -2.396961    0.857421 C.ar      1 <1>         0.576600 
     26 O           0.366246   -3.295075    1.645199 O.2       1 <1>        -0.519500 
     27 N          -0.337483   -1.404025    0.598822 N.ar      1 <1>        -0.649700 
     28 C          -4.181387   -1.003722   -0.156926 C.ar      1 <1>        -0.170900 
     29 C          -4.999743   -2.130769   -0.098454 C.ar      1 <1>        -0.192100 
     30 H          -7.346501   -3.717412   -0.162073 H         1 <1>         0.155100 
     31 H          -5.965354   -4.721199   -0.702443 H         1 <1>         0.158900 
     32 H          -7.114921   -5.356343    0.506851 H         1 <1>         0.177000 
     33 H          -4.375649   -3.074695    3.105484 H         1 <1>         0.152900 
     34 H          -2.935955   -1.057944    3.000799 H         1 <1>         0.141900 
     35 H          -2.000965    0.766898    1.838284 H         1 <1>         0.193600 
     36 H          -3.191061    1.554577    0.814071 H         1 <1>         0.207800 
     37 H           2.842261    1.268140   -0.072470 H         1 <1>         0.151600 
     38 H           4.148666    3.366764   -0.210520 H         1 <1>         0.143900 
     39 H           5.838212    3.669891   -2.034303 H         1 <1>         0.152700 
     40 H           4.930763   -0.254698   -3.518887 H         1 <1>         0.177000 
     41 H           3.849724   -2.890537   -0.299026 H         1 <1>         0.147600 
     42 H           4.313486   -3.980589    1.849249 H         1 <1>         0.140000 
     43 H           3.773165   -2.317226    2.129801 H         1 <1>         0.132200 
     44 H           2.657372   -3.670299    2.411985 H         1 <1>         0.181300 
     45 H           1.731242   -5.013707    0.289771 H         1 <1>         0.170600 
     46 H           3.431288   -5.320305   -0.120053 H         1 <1>         0.138600 
     47 H           2.362942   -4.558709   -1.313536 H         1 <1>         0.156900 
     48 H          -1.236539   -1.573342    1.043341 H         1 <1>         0.367500 
     49 H          -4.125456   -0.441138   -1.085235 H         1 <1>         0.150500 
     50 H          -5.569031   -2.418001   -0.974865 H         1 <1>         0.142600 
@<TRIPOS>BOND
     1    5   34 1    
     2   23   43 1    
     3   16   38 1    
     4    7   35 1    
     5   23   44 1    
     6   23   42 1    
     7   22   23 1    
     8    4   33 1    
     9    5    4 ar   
    10    6    5 ar   
    11   15   37 1    
    12   15   16 ar   
    13   16   17 ar   
    14    7   36 1    
    15    7    6 1    
    16    8    7 1    
    17   25   26 2    
    18    4    3 ar   
    19   17   39 1    
    20   14   15 ar   
    21   27   48 1    
    22   25   27 ar   
    23   21   25 ar   
    24    6   28 ar   
    25    9   27 ar   
    26   17   18 ar   
    27   21   22 1    
    28   22   41 1    
    29   22   24 1    
    30   11   21 ar   
    31    9    8 1    
    32   10    9 ar   
    33   11   10 ar   
    34   12   11 1    
    35    3    2 1    
    36    3   29 ar   
    37   14   12 1    
    38   14   20 ar   
    39   24   45 1    
    40   18   20 ar   
    41   18   19 1    
    42    2    1 1    
    43   28   29 ar   
    44   28   49 1    
    45   24   46 1    
    46   24   47 1    
    47   12   13 2    
    48   20   40 1    
    49   29   50 1    
    50    1   32 1    
    51    1   30 1    
    52    1   31 1    
@<TRIPOS>SUBSTRUCTURE
     1 ****       38 TEMP              0 ****  ****    0 ROOT 
