#	Name:			WHQ-2013-BMC-6477-3-7j
#	Creating user name:	Administrator
#	Creation time:		Sun Jul 05 16:56:39 2020

#	Modifying user name:	Administrator
#	Modification time:	Sun Jul 05 16:57:59 2020

@<TRIPOS>MOLECULE
WHQ-2013-BMC-6477-3-7j
   50    52     1     0     0
SMALL
MULLIKEN_CHARGES
INVALID_CHARGES
Gaussian 16 #p B3LYP/6-31G* opt
@<TRIPOS>ATOM
      1 C          -2.048085   -1.123353   -7.676997 C.3       1 <1>        -0.217600 
      2 O          -2.828718   -0.239439   -6.886625 O.3       1 <1>        -0.505000 
      3 C          -2.307417    0.204447   -5.707621 C.ar      1 <1>         0.378300 
      4 C          -1.043514   -0.139229   -5.213664 C.ar      1 <1>        -0.194700 
      5 C          -0.614430    0.380382   -3.990467 C.ar      1 <1>        -0.189800 
      6 C          -1.422060    1.241824   -3.241653 C.ar      1 <1>         0.182700 
      7 C          -0.951966    1.798311   -1.928002 C.3       1 <1>        -0.531500 
      8 S          -1.467564    0.807352   -0.432736 S.3       1 <1>         0.149300 
      9 C          -0.125583   -0.346173   -0.297035 C.ar      1 <1>         0.341200 
     10 N           0.990639   -0.209776   -0.948833 N.ar      1 <1>        -0.512100 
     11 C           1.968603   -1.168277   -0.757987 C.ar      1 <1>         0.115100 
     12 C           3.134377   -0.944240   -1.706072 C.2       1 <1>         0.379500 
     13 O           3.373789   -1.775360   -2.570767 O.2       1 <1>        -0.463200 
     14 C           3.927995    0.314791   -1.596728 C.ar      1 <1>         0.093300 
     15 C           3.766349    1.224936   -0.541677 C.ar      1 <1>        -0.160900 
     16 C           4.558064    2.368584   -0.464187 C.ar      1 <1>        -0.156500 
     17 C           5.512821    2.600457   -1.453664 C.ar      1 <1>         0.090500 
     18 BR          6.596294    4.168208   -1.356760 Br        1 <1>        -0.111900 
     19 C           5.693670    1.709108   -2.513610 C.ar      1 <1>        -0.150500 
     20 C           4.901499    0.568753   -2.576124 C.ar      1 <1>        -0.157600 
     21 C           1.877808   -2.229096    0.108224 C.ar      1 <1>         0.060600 
     22 C           2.912550   -3.310683    0.378702 C.3       1 <1>        -0.142900 
     23 C           2.766905   -4.475369   -0.624338 C.3       1 <1>        -0.451500 
     24 C           4.367183   -2.819755    0.471259 C.3       1 <1>        -0.471800 
     25 C           0.621402   -2.378475    0.849813 C.ar      1 <1>         0.580500 
     26 O           0.339879   -3.266463    1.643733 O.2       1 <1>        -0.516000 
     27 N          -0.333529   -1.376622    0.569095 N.ar      1 <1>        -0.651000 
     28 C          -2.686128    1.577446   -3.754076 C.ar      1 <1>        -0.177800 
     29 C          -3.127627    1.070362   -4.967642 C.ar      1 <1>        -0.170200 
     30 H          -1.824931   -2.054298   -7.139658 H         1 <1>         0.156200 
     31 H          -2.652854   -1.350308   -8.556647 H         1 <1>         0.171800 
     32 H          -1.106863   -0.655851   -7.994662 H         1 <1>         0.154300 
     33 H          -0.387845   -0.802134   -5.766390 H         1 <1>         0.139300 
     34 H           0.365327    0.104761   -3.611986 H         1 <1>         0.155700 
     35 H          -1.378897    2.785014   -1.728267 H         1 <1>         0.191200 
     36 H           0.135486    1.865792   -1.868749 H         1 <1>         0.224500 
     37 H           3.019253    1.045169    0.223369 H         1 <1>         0.158700 
     38 H           4.436903    3.072297    0.351825 H         1 <1>         0.161700 
     39 H           6.443733    1.908425   -3.270949 H         1 <1>         0.162600 
     40 H           5.023760   -0.146465   -3.382990 H         1 <1>         0.172700 
     41 H           2.639834   -3.705996    1.363432 H         1 <1>         0.167500 
     42 H           2.990095   -4.139784   -1.641399 H         1 <1>         0.172900 
     43 H           1.749305   -4.879770   -0.604433 H         1 <1>         0.153200 
     44 H           3.456163   -5.286712   -0.361288 H         1 <1>         0.140000 
     45 H           4.460840   -1.957397    1.141502 H         1 <1>         0.142200 
     46 H           4.993765   -3.623286    0.874734 H         1 <1>         0.149300 
     47 H           4.782141   -2.547742   -0.503089 H         1 <1>         0.161600 
     48 H          -1.222647   -1.487091    1.047336 H         1 <1>         0.357900 
     49 H          -3.333647    2.248293   -3.193380 H         1 <1>         0.127000 
     50 H          -4.102323    1.330946   -5.368149 H         1 <1>         0.141300 
@<TRIPOS>BOND
     1    7   35 1    
     2    8    7 1    
     3    9    8 1    
     4   28   49 1    
     5   27   48 1    
     6    7   36 1    
     7    7    6 1    
     8   16   38 1    
     9   27    9 ar   
    10   25   27 ar   
    11   10    9 ar   
    12    6   28 ar   
    13   28   29 ar   
    14   15   37 1    
    15    6    5 ar   
    16   25   26 2    
    17   29   50 1    
    18   21   25 ar   
    19   15   16 ar   
    20   16   17 ar   
    21   11   10 ar   
    22   29    3 ar   
    23   14   15 ar   
    24   17   18 1    
    25   17   19 ar   
    26   21   11 ar   
    27   22   21 1    
    28   11   12 1    
    29    5   34 1    
    30    5    4 ar   
    31   24   45 1    
    32   22   41 1    
    33    4    3 ar   
    34    3    2 1    
    35   12   14 1    
    36   14   20 ar   
    37   22   24 1    
    38   22   23 1    
    39   12   13 2    
    40    4   33 1    
    41   24   46 1    
    42   24   47 1    
    43   19   20 ar   
    44   19   39 1    
    45    2    1 1    
    46   20   40 1    
    47   23   43 1    
    48   23   44 1    
    49   23   42 1    
    50    1   30 1    
    51    1   32 1    
    52    1   31 1    
@<TRIPOS>SUBSTRUCTURE
     1 ****       38 TEMP              0 ****  ****    0 ROOT 
