#	Name:			WHQ-2013-BMC-6477-3-7d
#	Creating user name:	Administrator
#	Creation time:		Sun Jul 05 16:56:39 2020

#	Modifying user name:	Administrator
#	Modification time:	Sun Jul 05 16:57:59 2020

@<TRIPOS>MOLECULE
WHQ-2013-BMC-6477-3-7d
   44    46     1     0     0
SMALL
MULLIKEN_CHARGES
INVALID_CHARGES
Gaussian 16 #p B3LYP/6-31G* opt
@<TRIPOS>ATOM
      1 C           3.195388    6.172420    2.023865 C.3       1 <1>        -0.217600 
      2 O           1.797469    6.175443    1.776179 O.3       1 <1>        -0.504700 
      3 C           1.276290    5.181809    1.002077 C.ar      1 <1>         0.378400 
      4 C          -0.111921    5.234764    0.798381 C.ar      1 <1>        -0.170400 
      5 C          -0.737695    4.269274    0.023840 C.ar      1 <1>        -0.176000 
      6 C          -0.006965    3.226112   -0.569150 C.ar      1 <1>         0.182500 
      7 C          -0.690769    2.187142   -1.411472 C.3       1 <1>        -0.530900 
      8 S          -1.475052    0.793961   -0.450409 S.3       1 <1>         0.148000 
      9 C          -0.113787   -0.333294   -0.281099 C.ar      1 <1>         0.339600 
     10 N           0.987595   -0.216676   -0.960443 N.ar      1 <1>        -0.520500 
     11 C           1.976748   -1.159510   -0.749641 C.ar      1 <1>         0.151000 
     12 C           3.260388   -0.877212   -1.503408 C.2       1 <1>         0.355900 
     13 O           4.331143   -0.956441   -0.916055 O.2       1 <1>        -0.457800 
     14 C           3.208487   -0.495035   -2.948600 C.ar      1 <1>         0.085500 
     15 C           4.384960    0.005232   -3.529859 C.ar      1 <1>        -0.157100 
     16 C           4.429778    0.340112   -4.878287 C.ar      1 <1>        -0.151200 
     17 C           3.286708    0.155962   -5.658347 C.ar      1 <1>         0.090800 
     18 BR          3.336989    0.607729   -7.512087 Br        1 <1>        -0.113900 
     19 C           2.109938   -0.353784   -5.111247 C.ar      1 <1>        -0.159300 
     20 C           2.074011   -0.673025   -3.755410 C.ar      1 <1>        -0.156200 
     21 C           1.864036   -2.231597    0.101191 C.ar      1 <1>         0.056100 
     22 C           2.903885   -3.283430    0.361285 C.3       1 <1>        -0.505100 
     23 C           0.613234   -2.384447    0.845333 C.ar      1 <1>         0.582800 
     24 O           0.342344   -3.277759    1.635144 O.2       1 <1>        -0.508900 
     25 N          -0.323463   -1.358207    0.594197 N.ar      1 <1>        -0.650400 
     26 C           1.374491    3.187064   -0.360341 C.ar      1 <1>        -0.187400 
     27 C           2.020869    4.151589    0.416348 C.ar      1 <1>        -0.194100 
     28 H           3.770021    6.270919    1.093533 H         1 <1>         0.154100 
     29 H           3.510084    5.260314    2.547469 H         1 <1>         0.156100 
     30 H           3.387785    7.038232    2.659885 H         1 <1>         0.172300 
     31 H          -0.672824    6.043974    1.255170 H         1 <1>         0.141800 
     32 H          -1.814016    4.325240   -0.124805 H         1 <1>         0.127800 
     33 H          -0.008588    1.710855   -2.117278 H         1 <1>         0.222500 
     34 H          -1.536595    2.604059   -1.965673 H         1 <1>         0.192000 
     35 H           5.262656    0.122552   -2.902847 H         1 <1>         0.171900 
     36 H           5.336406    0.734284   -5.324115 H         1 <1>         0.161700 
     37 H           1.235899   -0.497816   -5.736843 H         1 <1>         0.160400 
     38 H           1.157463   -1.063360   -3.329014 H         1 <1>         0.158600 
     39 H           2.428001   -4.268657    0.391546 H         1 <1>         0.174400 
     40 H           3.700758   -3.274711   -0.381651 H         1 <1>         0.169000 
     41 H           3.363988   -3.127629    1.344971 H         1 <1>         0.180900 
     42 H          -1.183111   -1.418942    1.131432 H         1 <1>         0.358400 
     43 H           1.957152    2.387995   -0.808495 H         1 <1>         0.151400 
     44 H           3.094346    4.089723    0.553323 H         1 <1>         0.137800 
@<TRIPOS>BOND
     1    1   29 1    
     2    1   30 1    
     3   15   35 1    
     4    1   28 1    
     5   12   13 2    
     6   22   41 1    
     7    2    1 1    
     8   22   40 1    
     9   16   36 1    
    10   27   44 1    
    11   22   39 1    
    12   21   22 1    
    13   15   16 ar   
    14   14   15 ar   
    15   12   14 1    
    16   11   12 1    
    17   16   17 ar   
    18    3    2 1    
    19   27    3 ar   
    20   26   27 ar   
    21   14   20 ar   
    22   11   21 ar   
    23   23   21 ar   
    24   10   11 ar   
    25   26   43 1    
    26    4    3 ar   
    27    6   26 ar   
    28   17   18 1    
    29   19   17 ar   
    30   23   24 2    
    31   25   23 ar   
    32   20   19 ar   
    33   20   38 1    
    34    9   10 ar   
    35    4   31 1    
    36    5    4 ar   
    37   19   37 1    
    38    9   25 ar   
    39   25   42 1    
    40    8    9 1    
    41    6    5 ar   
    42    7    6 1    
    43    5   32 1    
    44    7   33 1    
    45    7    8 1    
    46    7   34 1    
@<TRIPOS>SUBSTRUCTURE
     1 ****       44 TEMP              0 ****  ****    0 ROOT 
