#	Name:			WHQ-2014-MCC-5468-3-1s
#	Creating user name:	Administrator
#	Creation time:		Sun Jul 05 16:56:42 2020

#	Modifying user name:	Administrator
#	Modification time:	Sun Jul 05 16:57:59 2020

@<TRIPOS>MOLECULE
WHQ-2014-MCC-5468-3-1s
   46    48     1     0     0
SMALL
MULLIKEN_CHARGES
INVALID_CHARGES
Gaussian 16 #p B3LYP/6-31G* opt
@<TRIPOS>ATOM
      1 C          -5.928704   -4.828617    2.145087 C.3       1 <1>        -0.221300 
      2 O          -5.869129   -3.980001    1.006814 O.3       1 <1>        -0.502000 
      3 C          -5.055786   -2.890872    1.055319 C.ar      1 <1>         0.380500 
      4 C          -5.019376   -2.106050   -0.111113 C.ar      1 <1>        -0.168900 
      5 C          -4.217242   -0.978350   -0.171834 C.ar      1 <1>        -0.165800 
      6 C          -3.428893   -0.589650    0.926399 C.ar      1 <1>         0.141500 
      7 C          -2.578726    0.659821    0.891370 C.3       1 <1>        -0.550400 
      8 S          -1.406812    0.858544   -0.531426 S.3       1 <1>         0.210100 
      9 C          -0.147816   -0.362862   -0.248087 C.ar      1 <1>         0.321100 
     10 N           0.953517   -0.206753   -0.922330 N.ar      1 <1>        -0.506000 
     11 C           1.941423   -1.139051   -0.757795 C.ar      1 <1>         0.252600 
     12 C           3.195264   -0.901388   -1.616693 C.3       1 <1>        -0.333500 
     13 C           2.992435    0.155719   -2.624237 C.1       1 <1>         0.395000 
     14 N           2.919527    0.966975   -3.450017 N.1       1 <1>        -0.470200 
     15 C           4.464318   -0.600399   -0.814307 C.ar      1 <1>         0.101900 
     16 C           4.464257    0.406863    0.158396 C.ar      1 <1>         0.363300 
     17 F           3.320424    1.084270    0.365534 F         1 <1>        -0.276000 
     18 C           5.576914    0.743299    0.915492 C.ar      1 <1>        -0.190900 
     19 C           6.767014    0.054025    0.691063 C.ar      1 <1>        -0.125000 
     20 C           6.829634   -0.946125   -0.276769 C.ar      1 <1>        -0.124800 
     21 C           5.688518   -1.256020   -1.018281 C.ar      1 <1>        -0.138900 
     22 CL          5.838432   -2.511181   -2.244287 Cl        1 <1>         0.004800 
     23 C           1.856729   -2.222910    0.083901 C.ar      1 <1>         0.060700 
     24 C           2.917806   -3.269875    0.285864 C.3       1 <1>        -0.536700 
     25 C           0.632184   -2.396264    0.855134 C.ar      1 <1>         0.572800 
     26 O           0.383773   -3.298768    1.645919 O.2       1 <1>        -0.524900 
     27 N          -0.341342   -1.399466    0.608958 N.ar      1 <1>        -0.650500 
     28 C          -3.477875   -1.376496    2.081092 C.ar      1 <1>        -0.211500 
     29 C          -4.279056   -2.521226    2.157148 C.ar      1 <1>        -0.182200 
     30 H          -6.308440   -4.293948    3.025444 H         1 <1>         0.155000 
     31 H          -6.621356   -5.629914    1.882966 H         1 <1>         0.176000 
     32 H          -4.945765   -5.258167    2.377042 H         1 <1>         0.161700 
     33 H          -5.627753   -2.410073   -0.957127 H         1 <1>         0.150300 
     34 H          -4.189659   -0.391982   -1.086606 H         1 <1>         0.151200 
     35 H          -2.018770    0.780880    1.823773 H         1 <1>         0.194400 
     36 H          -3.200494    1.555860    0.779214 H         1 <1>         0.208300 
     37 H           3.384350   -1.822633   -2.178436 H         1 <1>         0.221300 
     38 H           5.495382    1.534454    1.652579 H         1 <1>         0.159900 
     39 H           7.652627    0.299664    1.268907 H         1 <1>         0.154700 
     40 H           7.752106   -1.482649   -0.466344 H         1 <1>         0.162900 
     41 H           3.623297   -2.981918    1.076252 H         1 <1>         0.172800 
     42 H           3.499685   -3.459896   -0.620506 H         1 <1>         0.161600 
     43 H           2.444661   -4.202222    0.603708 H         1 <1>         0.191000 
     44 H          -1.239500   -1.557922    1.058617 H         1 <1>         0.367500 
     45 H          -2.887934   -1.094803    2.951438 H         1 <1>         0.141800 
     46 H          -4.281341   -3.107001    3.068645 H         1 <1>         0.144600 
@<TRIPOS>BOND
     1   18   38 1    
     2   19   39 1    
     3   28   45 1    
     4   18   19 ar   
     5   16   18 ar   
     6   20   19 ar   
     7    7   35 1    
     8   29   46 1    
     9   16   17 1    
    10   28   29 ar   
    11    6   28 ar   
    12   15   16 ar   
    13   24   41 1    
    14    1   30 1    
    15   25   26 2    
    16    7   36 1    
    17   29    3 ar   
    18    7    6 1    
    19    8    7 1    
    20   20   40 1    
    21   21   20 ar   
    22   27   44 1    
    23   25   27 ar   
    24   23   25 ar   
    25    6    5 ar   
    26    9   27 ar   
    27    1   32 1    
    28   24   43 1    
    29   23   24 1    
    30   24   42 1    
    31    1   31 1    
    32    2    1 1    
    33   11   23 ar   
    34   15   21 ar   
    35   12   15 1    
    36    9    8 1    
    37   10    9 ar   
    38   21   22 1    
    39    3    2 1    
    40    3    4 ar   
    41   11   10 ar   
    42   11   12 1    
    43    5    4 ar   
    44    5   34 1    
    45   12   13 1    
    46   12   37 1    
    47    4   33 1    
    48   13   14 3    
@<TRIPOS>SUBSTRUCTURE
     1 ****       41 TEMP              0 ****  ****    0 ROOT 
