#	Name:			WHQ-2014-MCC-5468-3-1a
#	Creating user name:	Administrator
#	Creation time:		Sun Jul 05 16:56:40 2020

#	Modifying user name:	Administrator
#	Modification time:	Sun Jul 05 16:57:59 2020

@<TRIPOS>MOLECULE
WHQ-2014-MCC-5468-3-1a
   46    48     1     0     0
SMALL
MULLIKEN_CHARGES
INVALID_CHARGES
Gaussian 16 #p B3LYP/6-31G* opt
@<TRIPOS>ATOM
      1 C          -8.039578    3.999105   -0.706731 C.3       1 <1>        -0.219600 
      2 O          -6.986456    4.134332    0.236941 O.3       1 <1>        -0.502500 
      3 C          -6.015721    3.180788    0.265392 C.ar      1 <1>         0.381700 
      4 C          -4.996706    3.378102    1.210873 C.ar      1 <1>        -0.170800 
      5 C          -3.961661    2.461239    1.320382 C.ar      1 <1>        -0.163400 
      6 C          -3.913389    1.322518    0.499880 C.ar      1 <1>         0.141000 
      7 C          -2.782210    0.334213    0.616774 C.3       1 <1>        -0.548700 
      8 S          -1.407636    0.861757   -0.517900 S.3       1 <1>         0.232000 
      9 C          -0.151852   -0.362021   -0.256455 C.ar      1 <1>         0.326200 
     10 N           0.951129   -0.209857   -0.931986 N.ar      1 <1>        -0.513300 
     11 C           1.941917   -1.140119   -0.754928 C.ar      1 <1>         0.249400 
     12 C           3.206389   -0.860032   -1.575055 C.3       1 <1>        -0.328300 
     13 C           2.864052   -0.546215   -2.973215 C.1       1 <1>         0.375100 
     14 N           2.627866   -0.317542   -4.086014 N.1       1 <1>        -0.465200 
     15 C           4.062722    0.245994   -0.943838 C.ar      1 <1>         0.164100 
     16 C           5.320500   -0.068384   -0.418000 C.ar      1 <1>        -0.181200 
     17 C           6.102172    0.923466    0.178838 C.ar      1 <1>        -0.131300 
     18 C           5.640766    2.236241    0.255049 C.ar      1 <1>        -0.191100 
     19 C           4.388708    2.526197   -0.278221 C.ar      1 <1>         0.384200 
     20 F           3.933499    3.793958   -0.211903 F         1 <1>        -0.294300 
     21 C           3.589621    1.561507   -0.876362 C.ar      1 <1>        -0.233500 
     22 C           1.864278   -2.219099    0.092287 C.ar      1 <1>         0.064900 
     23 C           2.952692   -3.239545    0.308917 C.3       1 <1>        -0.555600 
     24 C           0.635244   -2.400984    0.853212 C.ar      1 <1>         0.577300 
     25 O           0.376241   -3.295651    1.648230 O.2       1 <1>        -0.522800 
     26 N          -0.337666   -1.401556    0.601813 N.ar      1 <1>        -0.651800 
     27 C          -4.931295    1.139854   -0.439579 C.ar      1 <1>        -0.169100 
     28 C          -5.980228    2.052741   -0.563715 C.ar      1 <1>        -0.194200 
     29 H          -8.686297    4.865173   -0.557234 H         1 <1>         0.175800 
     30 H          -8.617222    3.081131   -0.536539 H         1 <1>         0.155200 
     31 H          -7.659788    4.002704   -1.736540 H         1 <1>         0.157800 
     32 H          -5.041436    4.256931    1.845953 H         1 <1>         0.147800 
     33 H          -3.177812    2.628969    2.055167 H         1 <1>         0.138700 
     34 H          -3.114863   -0.667207    0.324873 H         1 <1>         0.191500 
     35 H          -2.400225    0.305278    1.642403 H         1 <1>         0.191900 
     36 H           3.810519   -1.771696   -1.601705 H         1 <1>         0.195200 
     37 H           5.695591   -1.086238   -0.480830 H         1 <1>         0.134800 
     38 H           7.078514    0.671868    0.582907 H         1 <1>         0.143800 
     39 H           6.227501    3.027483    0.709578 H         1 <1>         0.150700 
     40 H           2.617838    1.831365   -1.273885 H         1 <1>         0.185900 
     41 H           2.606246   -3.978187    1.034394 H         1 <1>         0.202100 
     42 H           3.869460   -2.782156    0.699794 H         1 <1>         0.166700 
     43 H           3.211053   -3.770149   -0.616162 H         1 <1>         0.166900 
     44 H          -1.199096   -1.523005    1.120998 H         1 <1>         0.357100 
     45 H          -4.912709    0.268909   -1.090587 H         1 <1>         0.138500 
     46 H          -6.754614    1.875155   -1.300659 H         1 <1>         0.140400 
@<TRIPOS>BOND
     1    5   33 1    
     2    4   32 1    
     3   18   39 1    
     4    7   35 1    
     5   24   25 2    
     6   17   38 1    
     7    5    4 ar   
     8    6    5 ar   
     9    4    3 ar   
    10   17   18 ar   
    11   19   18 ar   
    12   23   41 1    
    13   16   17 ar   
    14   26   44 1    
    15   23   42 1    
    16   24   26 ar   
    17   22   24 ar   
    18   19   20 1    
    19    9   26 ar   
    20   21   19 ar   
    21    7    6 1    
    22    7   34 1    
    23    8    7 1    
    24   22   23 1    
    25   23   43 1    
    26    6   27 ar   
    27   16   37 1    
    28   15   16 ar   
    29   11   22 ar   
    30    3    2 1    
    31    3   28 ar   
    32    2    1 1    
    33    9    8 1    
    34   10    9 ar   
    35   15   21 ar   
    36   21   40 1    
    37   12   15 1    
    38   11   10 ar   
    39   11   12 1    
    40   27   28 ar   
    41   27   45 1    
    42    1   29 1    
    43   28   46 1    
    44    1   30 1    
    45    1   31 1    
    46   12   36 1    
    47   12   13 1    
    48   13   14 3    
@<TRIPOS>SUBSTRUCTURE
     1 ****       41 TEMP              0 ****  ****    0 ROOT 
