#	Name:			WHQ-2014-MCC-5468-3-1r
#	Creating user name:	Administrator
#	Creation time:		Sun Jul 05 16:56:42 2020

#	Modifying user name:	Administrator
#	Modification time:	Sun Jul 05 16:57:59 2020

@<TRIPOS>MOLECULE
WHQ-2014-MCC-5468-3-1r
   46    48     1     0     0
SMALL
MULLIKEN_CHARGES
INVALID_CHARGES
Gaussian 16 #p B3LYP/6-31G* opt
@<TRIPOS>ATOM
      1 C           1.103114    6.933499    2.894813 C.3       1 <1>        -0.215200 
      2 O           1.845395    5.959625    2.179277 O.3       1 <1>        -0.503000 
      3 C           1.169755    5.101562    1.361933 C.ar      1 <1>         0.377200 
      4 C          -0.218176    5.113409    1.169259 C.ar      1 <1>        -0.194500 
      5 C          -0.799503    4.184549    0.304966 C.ar      1 <1>        -0.181600 
      6 C          -0.028873    3.237215   -0.375852 C.ar      1 <1>         0.183700 
      7 C          -0.664888    2.243743   -1.306038 C.3       1 <1>        -0.539800 
      8 S          -1.471851    0.789579   -0.454741 S.3       1 <1>         0.147200 
      9 C          -0.112422   -0.333068   -0.278752 C.ar      1 <1>         0.341500 
     10 N           0.992656   -0.213434   -0.953544 N.ar      1 <1>        -0.513000 
     11 C           1.967634   -1.157865   -0.751689 C.ar      1 <1>         0.257900 
     12 C           3.230811   -0.926621   -1.596972 C.3       1 <1>        -0.320600 
     13 C           3.932980    0.285752   -1.139193 C.1       1 <1>         0.391400 
     14 N           4.506739    1.211703   -0.739153 N.1       1 <1>        -0.478800 
     15 C           2.932550   -0.933205   -3.095001 C.ar      1 <1>         0.104300 
     16 C           3.091668   -2.119010   -3.822580 C.ar      1 <1>        -0.181600 
     17 C           2.797811   -2.198190   -5.182529 C.ar      1 <1>        -0.144100 
     18 C           2.337443   -1.057709   -5.837479 C.ar      1 <1>         0.083900 
     19 BR          1.933443   -1.136545   -7.699652 Br        1 <1>        -0.106600 
     20 C           2.169520    0.143641   -5.155130 C.ar      1 <1>        -0.217700 
     21 C           2.467602    0.181170   -3.797968 C.ar      1 <1>         0.371300 
     22 F           2.305542    1.358224   -3.162522 F         1 <1>        -0.276000 
     23 C           1.861448   -2.230467    0.095934 C.ar      1 <1>         0.056500 
     24 C           2.925374   -3.271194    0.340953 C.3       1 <1>        -0.555300 
     25 C           0.615024   -2.385417    0.845682 C.ar      1 <1>         0.583400 
     26 O           0.341001   -3.276375    1.638343 O.2       1 <1>        -0.516800 
     27 N          -0.321835   -1.360483    0.593041 N.ar      1 <1>        -0.649800 
     28 C           1.361322    3.242522   -0.174602 C.ar      1 <1>        -0.193900 
     29 C           1.955441    4.160343    0.681038 C.ar      1 <1>        -0.179200 
     30 H           0.574302    7.617446    2.217507 H         1 <1>         0.151400 
     31 H           0.377434    6.469119    3.575805 H         1 <1>         0.152000 
     32 H           1.833511    7.497704    3.477588 H         1 <1>         0.171400 
     33 H          -0.847879    5.834708    1.677411 H         1 <1>         0.131400 
     34 H          -1.878488    4.203954    0.164593 H         1 <1>         0.123500 
     35 H           0.052136    1.820627   -2.010729 H         1 <1>         0.228700 
     36 H          -1.497310    2.679246   -1.866390 H         1 <1>         0.190300 
     37 H           3.918738   -1.755954   -1.409081 H         1 <1>         0.202800 
     38 H           3.455470   -3.006557   -3.311389 H         1 <1>         0.151500 
     39 H           2.929449   -3.127571   -5.724270 H         1 <1>         0.163100 
     40 H           1.819160    1.040895   -5.650768 H         1 <1>         0.175900 
     41 H           3.874360   -2.825318    0.660569 H         1 <1>         0.171400 
     42 H           2.583119   -3.943710    1.130053 H         1 <1>         0.207000 
     43 H           3.122590   -3.879759   -0.550772 H         1 <1>         0.160900 
     44 H          -1.179763   -1.418502    1.133005 H         1 <1>         0.359600 
     45 H           1.985256    2.526293   -0.698680 H         1 <1>         0.172600 
     46 H           3.029990    4.164666    0.833452 H         1 <1>         0.155500 
@<TRIPOS>BOND
     1    7   36 1    
     2    5   34 1    
     3    8    7 1    
     4    9    8 1    
     5   27   44 1    
     6    7   35 1    
     7    7    6 1    
     8    6    5 ar   
     9    5    4 ar   
    10    9   27 ar   
    11   25   27 ar   
    12   10    9 ar   
    13    4   33 1    
    14    6   28 ar   
    15   25   26 2    
    16    4    3 ar   
    17   23   25 ar   
    18   18   19 1    
    19   11   10 ar   
    20   20   40 1    
    21   20   18 ar   
    22   17   18 ar   
    23   21   20 ar   
    24    1   31 1    
    25    1   30 1    
    26   28   45 1    
    27   28   29 ar   
    28   11   23 ar   
    29   23   24 1    
    30   17   39 1    
    31   12   11 1    
    32   16   17 ar   
    33   29    3 ar   
    34    3    2 1    
    35   21   22 1    
    36   15   21 ar   
    37    2    1 1    
    38    1   32 1    
    39   15   16 ar   
    40   16   38 1    
    41   15   12 1    
    42   29   46 1    
    43   24   42 1    
    44   24   43 1    
    45   24   41 1    
    46   12   37 1    
    47   12   13 1    
    48   13   14 3    
@<TRIPOS>SUBSTRUCTURE
     1 ****       19 TEMP              0 ****  ****    0 ROOT 
