#	Name:			WHQ-2014-MCC-5468-3-1h
#	Creating user name:	Administrator
#	Creation time:		Sun Jul 05 16:56:41 2020

#	Modifying user name:	Administrator
#	Modification time:	Sun Jul 05 16:57:59 2020

@<TRIPOS>MOLECULE
WHQ-2014-MCC-5468-3-1h
   49    51     1     0     0
SMALL
MULLIKEN_CHARGES
INVALID_CHARGES
Gaussian 16 #p B3LYP/6-31G* opt
@<TRIPOS>ATOM
      1 C           3.597440   -3.126223    1.742266 C.3       1 <1>        -0.453800 
      2 C           2.909387   -3.286347    0.372338 C.3       1 <1>        -0.350700 
      3 C           1.869350   -2.226417    0.103546 C.ar      1 <1>         0.066100 
      4 C           1.976477   -1.159655   -0.752353 C.ar      1 <1>         0.239000 
      5 C           3.193618   -0.858392   -1.653101 C.3       1 <1>        -0.315100 
      6 C           4.469341   -0.849491   -0.922537 C.1       1 <1>         0.367400 
      7 N           5.456849   -0.744231   -0.322247 N.1       1 <1>        -0.482000 
      8 C           3.172892   -1.671743   -2.952738 C.ar      1 <1>         0.100400 
      9 C           2.246184   -1.311316   -3.942925 C.ar      1 <1>        -0.180000 
     10 C           2.153319   -2.009616   -5.144445 C.ar      1 <1>        -0.126900 
     11 C           3.002587   -3.091392   -5.388403 C.ar      1 <1>        -0.127300 
     12 C           3.934786   -3.469108   -4.425272 C.ar      1 <1>        -0.189200 
     13 C           4.002272   -2.759211   -3.230851 C.ar      1 <1>         0.334000 
     14 F           4.916792   -3.158463   -2.318191 F         1 <1>        -0.279500 
     15 N           0.983739   -0.218556   -0.956344 N.ar      1 <1>        -0.533900 
     16 C          -0.124770   -0.346567   -0.287748 C.ar      1 <1>         0.330100 
     17 S          -1.462854    0.807722   -0.444562 S.3       1 <1>         0.161300 
     18 C          -0.740765    2.027319   -1.646996 C.3       1 <1>        -0.492800 
     19 C          -1.720040    3.148917   -1.861463 C.ar      1 <1>         0.137300 
     20 C          -2.700902    3.068748   -2.863882 C.ar      1 <1>        -0.168100 
     21 C          -3.605024    4.101309   -3.066964 C.ar      1 <1>        -0.170500 
     22 C          -3.553575    5.250521   -2.262537 C.ar      1 <1>         0.379800 
     23 O          -4.480885    6.208369   -2.541451 O.3       1 <1>        -0.503300 
     24 C          -4.481874    7.394865   -1.761027 C.3       1 <1>        -0.218700 
     25 C          -2.584474    5.346635   -1.256258 C.ar      1 <1>        -0.194100 
     26 C          -1.683101    4.297481   -1.066047 C.ar      1 <1>        -0.172900 
     27 N          -0.333005   -1.370172    0.585448 N.ar      1 <1>        -0.650100 
     28 C           0.618675   -2.379781    0.848680 C.ar      1 <1>         0.586300 
     29 O           0.344043   -3.274103    1.637607 O.2       1 <1>        -0.515700 
     30 H           2.859126   -3.147332    2.548684 H         1 <1>         0.167100 
     31 H           4.158792   -2.188533    1.794339 H         1 <1>         0.165500 
     32 H           4.301757   -3.949703    1.903169 H         1 <1>         0.146900 
     33 H           3.662459   -3.301855   -0.416195 H         1 <1>         0.161000 
     34 H           2.399242   -4.256893    0.351382 H         1 <1>         0.165000 
     35 H           3.038540    0.184878   -1.950469 H         1 <1>         0.221500 
     36 H           1.585978   -0.470362   -3.750784 H         1 <1>         0.153100 
     37 H           1.425448   -1.705411   -5.890605 H         1 <1>         0.138900 
     38 H           2.942425   -3.639284   -6.324102 H         1 <1>         0.144700 
     39 H           4.614459   -4.301319   -4.575239 H         1 <1>         0.155900 
     40 H           0.204081    2.373743   -1.224477 H         1 <1>         0.204500 
     41 H          -0.525817    1.485040   -2.569792 H         1 <1>         0.199300 
     42 H          -2.752544    2.184514   -3.494899 H         1 <1>         0.135700 
     43 H          -4.360854    4.045599   -3.843817 H         1 <1>         0.145100 
     44 H          -5.295364    8.008126   -2.152044 H         1 <1>         0.174700 
     45 H          -4.667168    7.179324   -0.700651 H         1 <1>         0.155900 
     46 H          -3.535295    7.942210   -1.858922 H         1 <1>         0.155300 
     47 H          -2.520398    6.223917   -0.623073 H         1 <1>         0.138500 
     48 H          -0.934897    4.382553   -0.281438 H         1 <1>         0.138100 
     49 H          -1.203079   -1.455341    1.101885 H         1 <1>         0.356200 
@<TRIPOS>BOND
     1   11   38 1    
     2   27   49 1    
     3   28   29 2    
     4   10   37 1    
     5   21   43 1    
     6   20   42 1    
     7   10   11 ar   
     8   12   11 ar   
     9   28   27 ar   
    10   16   27 ar   
    11    2   34 1    
    12    9   10 ar   
    13    3   28 ar   
    14   20   21 ar   
    15   21   22 ar   
    16   16   17 1    
    17   17   18 1    
    18   19   20 ar   
    19   12   39 1    
    20   13   12 ar   
    21   15   16 ar   
    22    9   36 1    
    23    8    9 ar   
    24    3    2 1    
    25    4    3 ar   
    26   18   41 1    
    27    2   33 1    
    28    2    1 1    
    29   22   23 1    
    30   23   24 1    
    31   22   25 ar   
    32    4   15 ar   
    33   18   19 1    
    34   19   26 ar   
    35    8   13 ar   
    36   13   14 1    
    37   18   40 1    
    38    5    4 1    
    39    8    5 1    
    40    1   30 1    
    41   24   44 1    
    42    1   32 1    
    43    1   31 1    
    44   24   45 1    
    45   24   46 1    
    46   25   26 ar   
    47   25   47 1    
    48   26   48 1    
    49    5   35 1    
    50    5    6 1    
    51    6    7 3    
@<TRIPOS>SUBSTRUCTURE
     1 ****       38 TEMP              0 ****  ****    0 ROOT 
