#	Name:			WHQ-2014-MCC-5468-3-1t
#	Creating user name:	Administrator
#	Creation time:		Sun Jul 05 16:56:42 2020

#	Modifying user name:	Administrator
#	Modification time:	Sun Jul 05 16:57:59 2020

@<TRIPOS>MOLECULE
WHQ-2014-MCC-5468-3-1t
   46    48     1     0     0
SMALL
MULLIKEN_CHARGES
INVALID_CHARGES
Gaussian 16 #p B3LYP/6-31G* opt
@<TRIPOS>ATOM
      1 C          -5.902691   -4.820430    2.198053 C.3       1 <1>        -0.221800 
      2 O          -5.861283   -3.967692    1.061655 O.3       1 <1>        -0.501400 
      3 C          -5.047160   -2.879491    1.100050 C.ar      1 <1>         0.381200 
      4 C          -5.026095   -2.093851   -0.066330 C.ar      1 <1>        -0.168300 
      5 C          -4.224312   -0.966545   -0.137179 C.ar      1 <1>        -0.165000 
      6 C          -3.421029   -0.579048    0.950735 C.ar      1 <1>         0.140900 
      7 C          -2.570165    0.669066    0.904423 C.3       1 <1>        -0.548700 
      8 S          -1.407381    0.857782   -0.528411 S.3       1 <1>         0.200500 
      9 C          -0.146178   -0.362300   -0.248948 C.ar      1 <1>         0.327400 
     10 N           0.956968   -0.200992   -0.921062 N.ar      1 <1>        -0.507200 
     11 C           1.936367   -1.141831   -0.761441 C.ar      1 <1>         0.243600 
     12 C           3.204855   -0.913134   -1.609474 C.3       1 <1>        -0.335200 
     13 C           3.223112   -1.851860   -2.749255 C.1       1 <1>         0.375700 
     14 N           3.262017   -2.622911   -3.615992 N.1       1 <1>        -0.470300 
     15 C           3.428433    0.528832   -2.039167 C.ar      1 <1>         0.098300 
     16 C           4.383092    1.320996   -1.394130 C.ar      1 <1>        -0.180200 
     17 C           4.599518    2.651503   -1.752967 C.ar      1 <1>        -0.197200 
     18 C           3.839125    3.185980   -2.785603 C.ar      1 <1>         0.394900 
     19 F           4.034223    4.467124   -3.150707 F         1 <1>        -0.292200 
     20 C           2.881161    2.440018   -3.462585 C.ar      1 <1>        -0.278700 
     21 C           2.693941    1.121694   -3.070029 C.ar      1 <1>         0.396700 
     22 F           1.778732    0.389098   -3.725031 F         1 <1>        -0.280200 
     23 C           1.858470   -2.220543    0.086080 C.ar      1 <1>         0.073300 
     24 C           2.937742   -3.255463    0.265777 C.3       1 <1>        -0.556100 
     25 C           0.632616   -2.400131    0.854904 C.ar      1 <1>         0.574600 
     26 O           0.381794   -3.296457    1.650851 O.2       1 <1>        -0.523500 
     27 N          -0.341001   -1.403058    0.602300 N.ar      1 <1>        -0.652000 
     28 C          -3.454888   -1.366398    2.105757 C.ar      1 <1>        -0.211800 
     29 C          -4.255521   -2.510835    2.191685 C.ar      1 <1>        -0.181800 
     30 H          -4.915753   -5.249344    2.413304 H         1 <1>         0.162600 
     31 H          -6.269882   -4.289174    3.085639 H         1 <1>         0.155000 
     32 H          -6.598115   -5.621659    1.943459 H         1 <1>         0.176800 
     33 H          -5.645275   -2.397438   -0.904495 H         1 <1>         0.151500 
     34 H          -4.208721   -0.380125   -1.052051 H         1 <1>         0.150500 
     35 H          -3.190941    1.565729    0.791442 H         1 <1>         0.208100 
     36 H          -2.002830    0.793728    1.831777 H         1 <1>         0.194600 
     37 H           4.062336   -1.197904   -0.987177 H         1 <1>         0.201000 
     38 H           4.972102    0.888269   -0.589691 H         1 <1>         0.144600 
     39 H           5.340409    3.264991   -1.252795 H         1 <1>         0.152200 
     40 H           2.296449    2.867559   -4.268205 H         1 <1>         0.167600 
     41 H           3.863268   -2.818095    0.664037 H         1 <1>         0.156900 
     42 H           2.591899   -4.011074    0.973798 H         1 <1>         0.200400 
     43 H           3.187328   -3.752673   -0.678711 H         1 <1>         0.186400 
     44 H          -1.240642   -1.561798    1.049184 H         1 <1>         0.369100 
     45 H          -2.853169   -1.085808    2.968193 H         1 <1>         0.142100 
     46 H          -4.245788   -3.097240    3.102768 H         1 <1>         0.145500 
@<TRIPOS>BOND
     1   28   45 1    
     2    7   36 1    
     3   17   39 1    
     4   16   38 1    
     5   24   41 1    
     6   29   46 1    
     7   29   28 ar   
     8   28    6 ar   
     9   25   26 2    
    10   16   17 ar   
    11   17   18 ar   
    12    7   35 1    
    13   15   16 ar   
    14    6    7 1    
    15    7    8 1    
    16   24   42 1    
    17   27   25 ar   
    18   25   23 ar   
    19   27   44 1    
    20    3   29 ar   
    21    9   27 ar   
    22   23   24 1    
    23   24   43 1    
    24   11   23 ar   
    25   12   37 1    
    26    6    5 ar   
    27    1   31 1    
    28   18   19 1    
    29    8    9 1    
    30    9   10 ar   
    31   18   20 ar   
    32   10   11 ar   
    33   11   12 1    
    34   12   15 1    
    35   15   21 ar   
    36    1   30 1    
    37   12   13 1    
    38    1   32 1    
    39    2    1 1    
    40    3    2 1    
    41    3    4 ar   
    42   20   21 ar   
    43   20   40 1    
    44    5    4 ar   
    45    5   34 1    
    46   21   22 1    
    47    4   33 1    
    48   13   14 3    
@<TRIPOS>SUBSTRUCTURE
     1 ****       39 TEMP              0 ****  ****    0 ROOT 
