#	Name:			WHQ-2014-MCC-5468-3-1o
#	Creating user name:	Administrator
#	Creation time:		Sun Jul 05 16:56:42 2020

#	Modifying user name:	Administrator
#	Modification time:	Sun Jul 05 16:57:59 2020

@<TRIPOS>MOLECULE
WHQ-2014-MCC-5468-3-1o
   52    54     1     0     0
SMALL
MULLIKEN_CHARGES
INVALID_CHARGES
Gaussian 16 #p B3LYP/6-31G* opt
@<TRIPOS>ATOM
      1 C          -4.519095    7.381134   -1.726714 C.3       1 <1>        -0.218700 
      2 O          -4.484538    6.209276   -2.528236 O.3       1 <1>        -0.503300 
      3 C          -3.554746    5.256134   -2.241706 C.ar      1 <1>         0.379800 
      4 C          -3.573016    4.120783   -3.067105 C.ar      1 <1>        -0.170600 
      5 C          -2.663547    3.094024   -2.858369 C.ar      1 <1>        -0.167800 
      6 C          -1.710276    3.166461   -1.829236 C.ar      1 <1>         0.137200 
      7 C          -0.724882    2.051726   -1.608557 C.3       1 <1>        -0.491900 
      8 S          -1.466399    0.803112   -0.446976 S.3       1 <1>         0.162300 
      9 C          -0.125012   -0.344903   -0.284781 C.ar      1 <1>         0.329900 
     10 N           0.985299   -0.212497   -0.950943 N.ar      1 <1>        -0.533400 
     11 C           1.975974   -1.154356   -0.749056 C.ar      1 <1>         0.223700 
     12 C           3.219648   -0.823047   -1.608642 C.3       1 <1>        -0.321200 
     13 C           4.372486   -0.519633   -0.747116 C.1       1 <1>         0.373400 
     14 N           5.187606   -0.139993   -0.012721 N.1       1 <1>        -0.483100 
     15 C           3.385799   -1.766255   -2.813298 C.ar      1 <1>         0.157100 
     16 C           2.318767   -1.714656   -3.730958 C.ar      1 <1>        -0.177400 
     17 C           2.292655   -2.486267   -4.885846 C.ar      1 <1>        -0.125400 
     18 C           3.358212   -3.343148   -5.165898 C.ar      1 <1>        -0.123300 
     19 C           4.429003   -3.412475   -4.282855 C.ar      1 <1>        -0.146500 
     20 C           4.443621   -2.632670   -3.120124 C.ar      1 <1>         0.009500 
     21 BR          5.980480   -2.851916   -2.003423 Br        1 <1>        -0.089300 
     22 C           1.870867   -2.236292    0.091600 C.ar      1 <1>         0.082100 
     23 C           2.952858   -3.279815    0.309201 C.3       1 <1>        -0.159600 
     24 C           2.478668   -4.691052   -0.096029 C.3       1 <1>        -0.457500 
     25 C           3.486940   -3.253344    1.756299 C.3       1 <1>        -0.459400 
     26 C           0.623020   -2.386033    0.843832 C.ar      1 <1>         0.585700 
     27 O           0.335387   -3.264642    1.647465 O.2       1 <1>        -0.516100 
     28 N          -0.327479   -1.371920    0.583131 N.ar      1 <1>        -0.648300 
     29 C          -1.706261    4.301202   -1.013216 C.ar      1 <1>        -0.173000 
     30 C          -2.613315    5.344355   -1.208831 C.ar      1 <1>        -0.194100 
     31 H          -5.329316    7.992551   -2.127461 H         1 <1>         0.174600 
     32 H          -3.576667    7.940611   -1.790273 H         1 <1>         0.155400 
     33 H          -4.729004    7.144055   -0.675656 H         1 <1>         0.155900 
     34 H          -4.307478    4.071421   -3.864636 H         1 <1>         0.145000 
     35 H          -2.688973    2.220858   -3.506109 H         1 <1>         0.135400 
     36 H          -0.478467    1.527674   -2.533830 H         1 <1>         0.199200 
     37 H           0.204173    2.400311   -1.154087 H         1 <1>         0.206000 
     38 H           2.962923    0.150003   -2.043806 H         1 <1>         0.228000 
     39 H           1.491036   -1.044403   -3.515269 H         1 <1>         0.156100 
     40 H           1.447940   -2.414881   -5.564686 H         1 <1>         0.142000 
     41 H           3.359828   -3.953381   -6.064312 H         1 <1>         0.145400 
     42 H           5.267377   -4.071049   -4.480358 H         1 <1>         0.159700 
     43 H           3.795841   -3.036016   -0.340597 H         1 <1>         0.145300 
     44 H           1.659677   -5.029956    0.542687 H         1 <1>         0.180400 
     45 H           3.310711   -5.398172   -0.000408 H         1 <1>         0.143200 
     46 H           2.140079   -4.709868   -1.138399 H         1 <1>         0.138600 
     47 H           4.293059   -3.988203    1.863901 H         1 <1>         0.142400 
     48 H           2.697349   -3.499882    2.470635 H         1 <1>         0.175000 
     49 H           3.896270   -2.268237    2.004205 H         1 <1>         0.157900 
     50 H          -1.191185   -1.456095    1.110596 H         1 <1>         0.356400 
     51 H          -0.979390    4.380023   -0.208114 H         1 <1>         0.138800 
     52 H          -2.574879    6.211143   -0.559335 H         1 <1>         0.138700 
@<TRIPOS>BOND
     1   13   14 3    
     2   12   13 1    
     3   30   52 1    
     4   29   51 1    
     5    1   32 1    
     6   25   49 1    
     7    1   33 1    
     8   29   30 ar   
     9   30    3 ar   
    10    6   29 ar   
    11    7   37 1    
    12   20   21 1    
    13   12   38 1    
    14    1   31 1    
    15    2    1 1    
    16   25   47 1    
    17   25   48 1    
    18   23   25 1    
    19   11   12 1    
    20   12   15 1    
    21   23   43 1    
    22   10   11 ar   
    23   11   22 ar   
    24    7    6 1    
    25    7   36 1    
    26    8    7 1    
    27    6    5 ar   
    28    3    2 1    
    29    3    4 ar   
    30    9   10 ar   
    31   22   23 1    
    32   23   24 1    
    33   15   20 ar   
    34   15   16 ar   
    35   20   19 ar   
    36   22   26 ar   
    37    9    8 1    
    38    9   28 ar   
    39   26   28 ar   
    40   26   27 2    
    41   28   50 1    
    42    5    4 ar   
    43    5   35 1    
    44    4   34 1    
    45   19   42 1    
    46   19   18 ar   
    47   16   39 1    
    48   16   17 ar   
    49   24   45 1    
    50   24   44 1    
    51   24   46 1    
    52   18   17 ar   
    53   18   41 1    
    54   17   40 1    
@<TRIPOS>SUBSTRUCTURE
     1 ****       49 TEMP              0 ****  ****    0 ROOT 
