#	Name:			WHQ-2013-BMC-6477-3-7h
#	Creating user name:	Administrator
#	Creation time:		Sun Jul 05 16:56:39 2020

#	Modifying user name:	Administrator
#	Modification time:	Sun Jul 05 16:57:59 2020

@<TRIPOS>MOLECULE
WHQ-2013-BMC-6477-3-7h
   47    49     1     0     0
SMALL
MULLIKEN_CHARGES
INVALID_CHARGES
Gaussian 16 #p B3LYP/6-31G* opt
@<TRIPOS>ATOM
      1 C           3.694844   -3.033851    1.640694 C.3       1 <1>        -0.448300 
      2 C           2.938364   -3.263012    0.318025 C.3       1 <1>        -0.339200 
      3 C           1.861248   -2.233270    0.080792 C.ar      1 <1>         0.067000 
      4 C           1.944824   -1.142641   -0.754202 C.ar      1 <1>         0.120600 
      5 C           3.146999   -0.901424   -1.650420 C.2       1 <1>         0.373000 
      6 O           3.554101   -1.800988   -2.370763 O.2       1 <1>        -0.452200 
      7 C           3.812692    0.440592   -1.652068 C.ar      1 <1>         0.082000 
      8 C           4.799519    0.676299   -2.621865 C.ar      1 <1>        -0.149100 
      9 C           5.484818    1.886407   -2.645824 C.ar      1 <1>        -0.134600 
     10 C           5.207155    2.874249   -1.697191 C.ar      1 <1>        -0.136600 
     11 C           4.232285    2.628236   -0.732112 C.ar      1 <1>         0.072400 
     12 BR          3.852181    3.972701    0.576314 Br        1 <1>        -0.126400 
     13 C           3.528253    1.428782   -0.698199 C.ar      1 <1>        -0.171000 
     14 N           0.956097   -0.197879   -0.919215 N.ar      1 <1>        -0.509000 
     15 C          -0.152612   -0.361117   -0.257307 C.ar      1 <1>         0.324500 
     16 S          -1.412539    0.861110   -0.520882 S.3       1 <1>         0.225100 
     17 C          -2.795755    0.318655    0.595836 C.3       1 <1>        -0.547700 
     18 C          -3.939759    1.289487    0.458433 C.ar      1 <1>         0.141700 
     19 C          -4.033289    2.410732    1.286869 C.ar      1 <1>        -0.169300 
     20 C          -5.084315    3.321304    1.164407 C.ar      1 <1>        -0.194400 
     21 C          -6.066888    3.114674    0.188221 C.ar      1 <1>         0.381400 
     22 O          -7.135943    3.930760   -0.021810 O.3       1 <1>        -0.502600 
     23 C          -7.273708    5.087045    0.791461 C.3       1 <1>        -0.219300 
     24 C          -5.982274    1.994278   -0.653596 C.ar      1 <1>        -0.171000 
     25 C          -4.930983    1.099656   -0.518252 C.ar      1 <1>        -0.163700 
     26 N          -0.342167   -1.406328    0.594998 N.ar      1 <1>        -0.650900 
     27 C           0.634598   -2.399258    0.853173 C.ar      1 <1>         0.582700 
     28 O           0.382205   -3.288148    1.656916 O.2       1 <1>        -0.520700 
     29 H           4.212162   -2.067387    1.639489 H         1 <1>         0.139600 
     30 H           3.006691   -3.057512    2.491039 H         1 <1>         0.169300 
     31 H           4.445401   -3.818257    1.788731 H         1 <1>         0.148500 
     32 H           3.634176   -3.274207   -0.521539 H         1 <1>         0.176100 
     33 H           2.455968   -4.246388    0.357910 H         1 <1>         0.166400 
     34 H           5.011473   -0.105327   -3.343249 H         1 <1>         0.169000 
     35 H           6.243811    2.069361   -3.401140 H         1 <1>         0.147600 
     36 H           5.738665    3.819777   -1.705439 H         1 <1>         0.159700 
     37 H           2.766204    1.272152    0.053614 H         1 <1>         0.169000 
     38 H          -3.109963   -0.688578    0.303415 H         1 <1>         0.191600 
     39 H          -2.428922    0.298819    1.627084 H         1 <1>         0.191100 
     40 H          -3.274702    2.582575    2.047023 H         1 <1>         0.137600 
     41 H          -5.126366    4.176683    1.828580 H         1 <1>         0.139800 
     42 H          -7.382899    4.823081    1.851463 H         1 <1>         0.155200 
     43 H          -6.419511    5.766248    0.673271 H         1 <1>         0.157100 
     44 H          -8.181730    5.585861    0.448682 H         1 <1>         0.175600 
     45 H          -6.753611    1.849164   -1.402999 H         1 <1>         0.147700 
     46 H          -4.877376    0.237717   -1.178991 H         1 <1>         0.139100 
     47 H          -1.203605   -1.528296    1.114688 H         1 <1>         0.355600 
@<TRIPOS>BOND
     1    8   34 1    
     2    9   35 1    
     3   24   45 1    
     4    5    6 2    
     5    8    9 ar   
     6    7    8 ar   
     7    9   10 ar   
     8   25   46 1    
     9    5    7 1    
    10    4    5 1    
    11   25   24 ar   
    12   24   21 ar   
    13    7   13 ar   
    14   18   25 ar   
    15   10   36 1    
    16   11   10 ar   
    17    4   14 ar   
    18   14   15 ar   
    19   21   22 1    
    20   22   23 1    
    21   15   16 1    
    22   16   17 1    
    23    3    4 ar   
    24   21   20 ar   
    25   15   26 ar   
    26   23   44 1    
    27    2   32 1    
    28   13   11 ar   
    29   13   37 1    
    30   11   12 1    
    31   17   38 1    
    32   17   18 1    
    33   18   19 ar   
    34   23   43 1    
    35   23   42 1    
    36    3    2 1    
    37    3   27 ar   
    38   17   39 1    
    39    2   33 1    
    40   26   27 ar   
    41   26   47 1    
    42    2    1 1    
    43   20   19 ar   
    44   20   41 1    
    45   27   28 2    
    46   19   40 1    
    47    1   29 1    
    48    1   31 1    
    49    1   30 1    
@<TRIPOS>SUBSTRUCTURE
     1 ****       45 TEMP              0 ****  ****    0 ROOT 
