#	Name:			WHQ-2014-MCC-5468-3-1u
#	Creating user name:	Administrator
#	Creation time:		Sun Jul 05 16:56:42 2020

#	Modifying user name:	Administrator
#	Modification time:	Sun Jul 05 16:57:59 2020

@<TRIPOS>MOLECULE
WHQ-2014-MCC-5468-3-1u
   46    48     1     0     0
SMALL
MULLIKEN_CHARGES
INVALID_CHARGES
Gaussian 16 #p B3LYP/6-31G* opt
@<TRIPOS>ATOM
      1 C          -4.202339    1.151144   -7.434072 C.3       1 <1>        -0.217600 
      2 O          -3.061857    0.498215   -6.897590 O.3       1 <1>        -0.502800 
      3 C          -2.607683    0.889735   -5.674173 C.ar      1 <1>         0.378600 
      4 C          -3.180367    1.902748   -4.896673 C.ar      1 <1>        -0.192200 
      5 C          -2.621371    2.215778   -3.655105 C.ar      1 <1>        -0.189100 
      6 C          -1.499116    1.542739   -3.166848 C.ar      1 <1>         0.186900 
      7 C          -0.908880    1.897374   -1.831725 C.3       1 <1>        -0.535900 
      8 S          -1.466423    0.806059   -0.425614 S.3       1 <1>         0.159700 
      9 C          -0.123129   -0.346266   -0.297737 C.ar      1 <1>         0.345900 
     10 N           0.991533   -0.217704   -0.959651 N.ar      1 <1>        -0.541800 
     11 C           1.974602   -1.163954   -0.754164 C.ar      1 <1>         0.242600 
     12 C           3.228653   -0.879554   -1.597839 C.3       1 <1>        -0.296700 
     13 C           3.610100   -2.042548   -2.410574 C.1       1 <1>         0.371800 
     14 N           3.905839   -2.953562   -3.066201 N.1       1 <1>        -0.487800 
     15 C           4.394089   -0.306345   -0.776258 C.ar      1 <1>         0.150000 
     16 C           5.676447   -0.858062   -0.823694 C.ar      1 <1>        -0.266100 
     17 C           6.689023   -0.264040   -0.074486 C.ar      1 <1>         0.397900 
     18 F           7.922311   -0.799527   -0.120666 F         1 <1>        -0.288800 
     19 C           6.480353    0.856549    0.717211 C.ar      1 <1>        -0.272700 
     20 C           5.191629    1.380063    0.735727 C.ar      1 <1>         0.395300 
     21 F           4.952290    2.470132    1.488481 F         1 <1>        -0.291600 
     22 C           4.146159    0.827225    0.008893 C.ar      1 <1>        -0.241500 
     23 C           1.869988   -2.222005    0.111483 C.ar      1 <1>         0.068900 
     24 C           2.925289   -3.263189    0.364015 C.3       1 <1>        -0.541100 
     25 C           0.617544   -2.381456    0.848359 C.ar      1 <1>         0.582500 
     26 O           0.342597   -3.267719    1.643867 O.2       1 <1>        -0.509300 
     27 N          -0.335057   -1.374485    0.567730 N.ar      1 <1>        -0.651300 
     28 C          -0.936530    0.528978   -3.961863 C.ar      1 <1>        -0.181800 
     29 C          -1.478533    0.204732   -5.196244 C.ar      1 <1>        -0.169900 
     30 H          -4.386260    0.683151   -8.402645 H         1 <1>         0.174400 
     31 H          -4.021874    2.224533   -7.578308 H         1 <1>         0.153800 
     32 H          -5.083144    1.015879   -6.792656 H         1 <1>         0.154600 
     33 H          -4.049126    2.450657   -5.242503 H         1 <1>         0.135700 
     34 H          -3.075062    3.006510   -3.061270 H         1 <1>         0.127800 
     35 H           0.180771    1.829021   -1.822641 H         1 <1>         0.223400 
     36 H          -1.202406    2.901462   -1.515202 H         1 <1>         0.192700 
     37 H           2.917529   -0.101837   -2.306328 H         1 <1>         0.225100 
     38 H           5.903129   -1.728695   -1.428838 H         1 <1>         0.177700 
     39 H           7.282294    1.303059    1.292500 H         1 <1>         0.168500 
     40 H           3.161268    1.278390    0.058970 H         1 <1>         0.163600 
     41 H           2.765227   -3.703399    1.351011 H         1 <1>         0.191700 
     42 H           2.867269   -4.075216   -0.371589 H         1 <1>         0.191300 
     43 H           3.934669   -2.846822    0.318814 H         1 <1>         0.163900 
     44 H          -1.220230   -1.474025    1.055542 H         1 <1>         0.360200 
     45 H          -0.063850   -0.008486   -3.601245 H         1 <1>         0.146000 
     46 H          -1.045430   -0.574861   -5.815110 H         1 <1>         0.147300 
@<TRIPOS>BOND
     1   13   14 3    
     2   24   42 1    
     3   12   13 1    
     4   24   41 1    
     5   24   43 1    
     6   23   24 1    
     7   29   46 1    
     8   16   38 1    
     9    1   30 1    
    10    2    1 1    
    11    3    2 1    
    12   25   26 2    
    13   25   23 ar   
    14   11   23 ar   
    15   29    3 ar   
    16   28   29 ar   
    17   27   25 ar   
    18   11   12 1    
    19   12   37 1    
    20   12   15 1    
    21    1   32 1    
    22    1   31 1    
    23   15   16 ar   
    24   16   17 ar   
    25   28   45 1    
    26   10   11 ar   
    27   17   18 1    
    28    4    3 ar   
    29    6   28 ar   
    30   15   22 ar   
    31   27   44 1    
    32    9   27 ar   
    33   17   19 ar   
    34    9   10 ar   
    35    8    9 1    
    36    4   33 1    
    37    5    4 ar   
    38    6    5 ar   
    39    7    6 1    
    40   22   40 1    
    41   22   20 ar   
    42   19   39 1    
    43   20   19 ar   
    44    5   34 1    
    45    8    7 1    
    46    7   35 1    
    47    7   36 1    
    48   20   21 1    
@<TRIPOS>SUBSTRUCTURE
     1 ****       38 TEMP              0 ****  ****    0 ROOT 
