#	Name:			WHQ-2013-BMC-6477-3-7e
#	Creating user name:	Administrator
#	Creation time:		Sun Jul 05 16:56:39 2020

#	Modifying user name:	Administrator
#	Modification time:	Sun Jul 05 16:57:59 2020

@<TRIPOS>MOLECULE
WHQ-2013-BMC-6477-3-7e
   44    46     1     0     0
SMALL
MULLIKEN_CHARGES
INVALID_CHARGES
Gaussian 16 #p B3LYP/6-31G* opt
@<TRIPOS>ATOM
      1 C          -5.905568   -4.774715    2.293119 C.3       1 <1>        -0.221700 
      2 O          -5.882085   -3.922244    1.156034 O.3       1 <1>        -0.501800 
      3 C          -5.058179   -2.840764    1.176753 C.ar      1 <1>         0.380900 
      4 C          -5.055303   -2.055578    0.009797 C.ar      1 <1>        -0.168600 
      5 C          -4.245404   -0.935325   -0.078526 C.ar      1 <1>        -0.165100 
      6 C          -3.415915   -0.554096    0.991691 C.ar      1 <1>         0.141800 
      7 C          -2.555190    0.686429    0.925083 C.3       1 <1>        -0.547300 
      8 S          -1.414716    0.857009   -0.528227 S.3       1 <1>         0.193100 
      9 C          -0.145589   -0.359088   -0.248540 C.ar      1 <1>         0.321000 
     10 N           0.957130   -0.196049   -0.914740 N.ar      1 <1>        -0.509000 
     11 C           1.942993   -1.149260   -0.767782 C.ar      1 <1>         0.146900 
     12 C           3.142745   -0.952042   -1.674053 C.2       1 <1>         0.358100 
     13 O           3.735115   -1.924949   -2.114793 O.2       1 <1>        -0.440900 
     14 C           3.576653    0.442091   -2.001707 C.ar      1 <1>         0.015300 
     15 C           3.446588    1.494988   -1.080049 C.ar      1 <1>        -0.141400 
     16 C           3.949956    2.763862   -1.352213 C.ar      1 <1>        -0.137600 
     17 C           4.579710    3.013296   -2.574012 C.ar      1 <1>        -0.120200 
     18 C           4.710766    1.993545   -3.515192 C.ar      1 <1>        -0.198900 
     19 C           4.220196    0.727744   -3.216007 C.ar      1 <1>         0.350000 
     20 F           4.349377   -0.226797   -4.150602 F         1 <1>        -0.270500 
     21 C           1.863463   -2.226345    0.086977 C.ar      1 <1>         0.054000 
     22 C           2.915717   -3.276610    0.305795 C.3       1 <1>        -0.501600 
     23 C           0.630049   -2.395818    0.855821 C.ar      1 <1>         0.575300 
     24 O           0.382097   -3.294305    1.649761 O.2       1 <1>        -0.517700 
     25 N          -0.343772   -1.403673    0.601002 N.ar      1 <1>        -0.650900 
     26 C          -3.432185   -1.340750    2.147535 C.ar      1 <1>        -0.212000 
     27 C          -4.240453   -2.478398    2.251014 C.ar      1 <1>        -0.181900 
     28 H          -6.612585   -5.570568    2.053663 H         1 <1>         0.176400 
     29 H          -4.917590   -5.211341    2.487134 H         1 <1>         0.162600 
     30 H          -6.249380   -4.240696    3.188508 H         1 <1>         0.155000 
     31 H          -5.694939   -2.354000   -0.814703 H         1 <1>         0.150500 
     32 H          -4.243822   -0.349300   -0.993929 H         1 <1>         0.149600 
     33 H          -1.971692    0.810133    1.842527 H         1 <1>         0.193500 
     34 H          -3.170673    1.587466    0.818559 H         1 <1>         0.207000 
     35 H           2.948460    1.305697   -0.135956 H         1 <1>         0.148100 
     36 H           3.846346    3.556706   -0.617750 H         1 <1>         0.136700 
     37 H           4.967158    4.003113   -2.798795 H         1 <1>         0.142700 
     38 H           5.186569    2.155946   -4.476657 H         1 <1>         0.150200 
     39 H           2.833647   -3.660943    1.325864 H         1 <1>         0.172300 
     40 H           2.764354   -4.122222   -0.376320 H         1 <1>         0.181800 
     41 H           3.921982   -2.898221    0.122571 H         1 <1>         0.168100 
     42 H          -1.244749   -1.563953    1.044949 H         1 <1>         0.368100 
     43 H          -2.809582   -1.065317    2.996789 H         1 <1>         0.142200 
     44 H          -4.216031   -3.064703    3.161827 H         1 <1>         0.145500 
@<TRIPOS>BOND
     1   26   43 1    
     2   16   36 1    
     3    7   33 1    
     4   15   35 1    
     5   22   39 1    
     6   27   44 1    
     7   15   16 ar   
     8   16   17 ar   
     9   23   24 2    
    10   27   26 ar   
    11   26    6 ar   
    12   14   15 ar   
    13    7   34 1    
    14    6    7 1    
    15    7    8 1    
    16   22   41 1    
    17   25   23 ar   
    18   23   21 ar   
    19   25   42 1    
    20    3   27 ar   
    21   21   22 1    
    22   22   40 1    
    23   17   37 1    
    24    9   25 ar   
    25   11   21 ar   
    26   17   18 ar   
    27    1   30 1    
    28    6    5 ar   
    29    8    9 1    
    30    9   10 ar   
    31   10   11 ar   
    32   11   12 1    
    33   12   14 1    
    34   14   19 ar   
    35    1   29 1    
    36   12   13 2    
    37    1   28 1    
    38    2    1 1    
    39    3    2 1    
    40    3    4 ar   
    41   18   19 ar   
    42   18   38 1    
    43   19   20 1    
    44    5    4 ar   
    45    5   32 1    
    46    4   31 1    
@<TRIPOS>SUBSTRUCTURE
     1 ****       36 TEMP              0 ****  ****    0 ROOT 
