#	Name:			WHQ-2013-BMC-6477-3-7c
#	Creating user name:	Administrator
#	Creation time:		Sun Jul 05 16:56:39 2020

#	Modifying user name:	Administrator
#	Modification time:	Sun Jul 05 16:57:59 2020

@<TRIPOS>MOLECULE
WHQ-2013-BMC-6477-3-7c
   44    46     1     0     0
SMALL
MULLIKEN_CHARGES
INVALID_CHARGES
Gaussian 16 #p B3LYP/6-31G* opt
@<TRIPOS>ATOM
      1 C          -5.901148   -4.720188    2.404540 C.3       1 <1>        -0.222100 
      2 O          -5.887130   -3.877117    1.260133 O.3       1 <1>        -0.501900 
      3 C          -5.055743   -2.801171    1.260809 C.ar      1 <1>         0.380900 
      4 C          -5.068747   -2.021643    0.090111 C.ar      1 <1>        -0.168900 
      5 C          -4.253120   -0.907251   -0.018134 C.ar      1 <1>        -0.165500 
      6 C          -3.401639   -0.526669    1.035025 C.ar      1 <1>         0.141700 
      7 C          -2.534953    0.708143    0.947603 C.3       1 <1>        -0.547700 
      8 S          -1.411073    0.862891   -0.520488 S.3       1 <1>         0.192500 
      9 C          -0.146987   -0.360193   -0.250639 C.ar      1 <1>         0.322200 
     10 N           0.947467   -0.210199   -0.935555 N.ar      1 <1>        -0.509000 
     11 C           1.945316   -1.145835   -0.760463 C.ar      1 <1>         0.142100 
     12 C           3.211254   -0.855278   -1.540567 C.2       1 <1>         0.365200 
     13 O           4.295511   -0.989262   -0.990261 O.2       1 <1>        -0.456300 
     14 C           3.131729   -0.407116   -2.968818 C.ar      1 <1>         0.078200 
     15 C           1.973518   -0.509479   -3.752742 C.ar      1 <1>        -0.141300 
     16 C           2.003311   -0.129833   -5.094031 C.ar      1 <1>        -0.141100 
     17 C           3.176012    0.362680   -5.666951 C.ar      1 <1>        -0.134000 
     18 C           4.323737    0.460165   -4.878636 C.ar      1 <1>         0.076300 
     19 BR          5.936741    1.131988   -5.659730 Br        1 <1>        -0.124300 
     20 C           4.317943    0.075359   -3.545627 C.ar      1 <1>        -0.175900 
     21 C           1.868944   -2.217253    0.099948 C.ar      1 <1>         0.060100 
     22 C           2.933272   -3.249216    0.343709 C.3       1 <1>        -0.504300 
     23 C           0.630059   -2.396661    0.854822 C.ar      1 <1>         0.574700 
     24 O           0.378863   -3.300792    1.640991 O.2       1 <1>        -0.516300 
     25 N          -0.340934   -1.399488    0.605656 N.ar      1 <1>        -0.651300 
     26 C          -3.402561   -1.307660    2.194934 C.ar      1 <1>        -0.212400 
     27 C          -4.216441   -2.439163    2.318434 C.ar      1 <1>        -0.181900 
     28 H          -6.226087   -4.175597    3.300493 H         1 <1>         0.155800 
     29 H          -4.914577   -5.164682    2.587006 H         1 <1>         0.162600 
     30 H          -6.619272   -5.511047    2.182468 H         1 <1>         0.176600 
     31 H          -5.726225   -2.319001   -0.720556 H         1 <1>         0.150000 
     32 H          -4.265560   -0.324370   -0.935421 H         1 <1>         0.147900 
     33 H          -1.938001    0.836078    1.855541 H         1 <1>         0.196900 
     34 H          -3.146162    1.612110    0.841805 H         1 <1>         0.208300 
     35 H           1.053012   -0.877320   -3.317439 H         1 <1>         0.154500 
     36 H           1.106324   -0.213136   -5.700970 H         1 <1>         0.145100 
     37 H           3.202781    0.666540   -6.707850 H         1 <1>         0.158800 
     38 H           5.212476    0.135749   -2.937287 H         1 <1>         0.182800 
     39 H           3.488562   -3.016575    1.261033 H         1 <1>         0.179700 
     40 H           2.463698   -4.225512    0.494388 H         1 <1>         0.173700 
     41 H           3.657645   -3.301015   -0.469085 H         1 <1>         0.168700 
     42 H          -1.237251   -1.551208    1.061796 H         1 <1>         0.368500 
     43 H          -2.763432   -1.031912    3.031721 H         1 <1>         0.144200 
     44 H          -4.180005   -3.020862    3.231846 H         1 <1>         0.146400 
@<TRIPOS>BOND
     1    1   30 1    
     2   16   36 1    
     3    1   29 1    
     4    2    1 1    
     5    3    2 1    
     6    1   28 1    
     7    4   31 1    
     8   17   37 1    
     9   16   17 ar   
    10   15   16 ar   
    11   18   17 ar   
    12   22   40 1    
    13   15   35 1    
    14    4    3 ar   
    15    5    4 ar   
    16   14   15 ar   
    17   27    3 ar   
    18   22   41 1    
    19   18   19 1    
    20   20   18 ar   
    21   21   22 1    
    22   22   39 1    
    23   14   20 ar   
    24   12   14 1    
    25    5   32 1    
    26   23   24 2    
    27    6    5 ar   
    28   20   38 1    
    29   23   21 ar   
    30   11   21 ar   
    31   25   23 ar   
    32   27   44 1    
    33   26   27 ar   
    34   11   12 1    
    35   12   13 2    
    36   10   11 ar   
    37   25   42 1    
    38    9   25 ar   
    39    9   10 ar   
    40    8    9 1    
    41    6   26 ar   
    42    7    6 1    
    43   26   43 1    
    44    8    7 1    
    45    7   34 1    
    46    7   33 1    
@<TRIPOS>SUBSTRUCTURE
     1 ****       36 TEMP              0 ****  ****    0 ROOT 
