#	Name:			WHQ-2014-MCC-5468-3-1f
#	Creating user name:	Administrator
#	Creation time:		Sun Jul 05 16:56:41 2020

#	Modifying user name:	Administrator
#	Modification time:	Sun Jul 05 16:57:59 2020

@<TRIPOS>MOLECULE
WHQ-2014-MCC-5468-3-1f
   46    48     1     0     0
SMALL
MULLIKEN_CHARGES
INVALID_CHARGES
Gaussian 16 #p B3LYP/6-31G* opt
@<TRIPOS>ATOM
      1 C          -2.722242   -1.351546   -7.574803 C.3       1 <1>        -0.216800 
      2 O          -3.487274   -0.650137   -6.606519 O.3       1 <1>        -0.506000 
      3 C          -2.836765   -0.122035   -5.530238 C.ar      1 <1>         0.377300 
      4 C          -3.645160    0.564968   -4.609477 C.ar      1 <1>        -0.171600 
      5 C          -3.078081    1.140822   -3.483048 C.ar      1 <1>        -0.174300 
      6 C          -1.697400    1.049197   -3.236689 C.ar      1 <1>         0.182200 
      7 C          -1.083463    1.687405   -2.022711 C.3       1 <1>        -0.538000 
      8 S          -1.456822    0.815910   -0.415092 S.3       1 <1>         0.145800 
      9 C          -0.127022   -0.353586   -0.306917 C.ar      1 <1>         0.335600 
     10 N           0.989740   -0.221185   -0.960754 N.ar      1 <1>        -0.519100 
     11 C           1.973167   -1.164769   -0.757217 C.ar      1 <1>         0.250800 
     12 C           3.246790   -0.922205   -1.578101 C.3       1 <1>        -0.343000 
     13 C           2.925733   -0.354288   -2.898462 C.1       1 <1>         0.408600 
     14 N           2.707355    0.075752   -3.954217 N.1       1 <1>        -0.490200 
     15 C           4.257606   -0.026611   -0.847332 C.ar      1 <1>         0.146100 
     16 C           3.847847    1.217456   -0.345464 C.ar      1 <1>        -0.168400 
     17 C           4.734141    2.055861    0.324871 C.ar      1 <1>        -0.123600 
     18 C           6.060911    1.663248    0.507236 C.ar      1 <1>        -0.123300 
     19 C           6.495368    0.435645    0.012890 C.ar      1 <1>        -0.145700 
     20 C           5.596902   -0.391975   -0.661041 C.ar      1 <1>         0.025900 
     21 BR          6.278163   -2.059403   -1.326619 Br        1 <1>        -0.110200 
     22 C           1.870628   -2.214076    0.120569 C.ar      1 <1>         0.050100 
     23 C           2.915531   -3.255963    0.412061 C.3       1 <1>        -0.532800 
     24 C           0.616360   -2.376924    0.851479 C.ar      1 <1>         0.584000 
     25 O           0.349176   -3.268061    1.645900 O.2       1 <1>        -0.512300 
     26 N          -0.343573   -1.384839    0.556304 N.ar      1 <1>        -0.647800 
     27 C          -0.903846    0.364434   -4.160383 C.ar      1 <1>        -0.204100 
     28 C          -1.460239   -0.218310   -5.302697 C.ar      1 <1>        -0.203200 
     29 H          -3.432701   -1.682296   -8.334574 H         1 <1>         0.169800 
     30 H          -1.968364   -0.703296   -8.040230 H         1 <1>         0.155800 
     31 H          -2.223833   -2.227052   -7.138215 H         1 <1>         0.154300 
     32 H          -4.710582    0.634942   -4.805307 H         1 <1>         0.138900 
     33 H          -3.718033    1.670301   -2.780013 H         1 <1>         0.125800 
     34 H           0.004439    1.738437   -2.089512 H         1 <1>         0.228400 
     35 H          -1.472222    2.694609   -1.844844 H         1 <1>         0.192600 
     36 H           3.725798   -1.884000   -1.774841 H         1 <1>         0.215600 
     37 H           2.814611    1.517242   -0.490007 H         1 <1>         0.172700 
     38 H           4.388684    3.013436    0.702982 H         1 <1>         0.146100 
     39 H           6.761154    2.308336    1.030028 H         1 <1>         0.147800 
     40 H           7.523412    0.116286    0.142459 H         1 <1>         0.160900 
     41 H           2.959200   -3.434053    1.491209 H         1 <1>         0.186900 
     42 H           3.913227   -2.981896    0.066383 H         1 <1>         0.168100 
     43 H           2.643136   -4.216732   -0.044224 H         1 <1>         0.176700 
     44 H          -1.240828   -1.497674    1.017971 H         1 <1>         0.359400 
     45 H           0.168385    0.288974   -4.003807 H         1 <1>         0.183900 
     46 H          -0.810198   -0.733760   -6.000107 H         1 <1>         0.140500 
@<TRIPOS>BOND
     1   17   38 1    
     2   18   39 1    
     3   17   18 ar   
     4   16   17 ar   
     5    7   35 1    
     6   19   18 ar   
     7   16   37 1    
     8    7   34 1    
     9   15   16 ar   
    10    6    7 1    
    11    7    8 1    
    12   19   40 1    
    13   20   19 ar   
    14    5   33 1    
    15    5    6 ar   
    16   27    6 ar   
    17    4    5 ar   
    18    8    9 1    
    19   15   20 ar   
    20   12   15 1    
    21   13   14 3    
    22   20   21 1    
    23   27   45 1    
    24   28   27 ar   
    25    4   32 1    
    26    3    4 ar   
    27   12   13 1    
    28    9   10 ar   
    29   10   11 ar   
    30    9   26 ar   
    31    3   28 ar   
    32   28   46 1    
    33    2    3 1    
    34   11   12 1    
    35   12   36 1    
    36   11   22 ar   
    37    1   30 1    
    38    2    1 1    
    39   26   44 1    
    40   26   24 ar   
    41    1   29 1    
    42    1   31 1    
    43   22   24 ar   
    44   22   23 1    
    45   24   25 2    
    46   23   42 1    
    47   23   41 1    
    48   23   43 1    
@<TRIPOS>SUBSTRUCTURE
     1 ****       14 TEMP              0 ****  ****    0 ROOT 
