#	Name:			WHQ-2013-BMC-6477-3-7p
#	Creating user name:	Administrator
#	Creation time:		Sun Jul 05 16:56:40 2020

#	Modifying user name:	Administrator
#	Modification time:	Sun Jul 05 16:57:59 2020

@<TRIPOS>MOLECULE
WHQ-2013-BMC-6477-3-7p
   44    46     1     0     0
SMALL
MULLIKEN_CHARGES
INVALID_CHARGES
Gaussian 16 #p B3LYP/6-31G* opt
@<TRIPOS>ATOM
      1 C          -1.819829   -0.935051   -7.760219 C.3       1 <1>        -0.217800 
      2 O          -2.661002   -0.138239   -6.939650 O.3       1 <1>        -0.504600 
      3 C          -2.174124    0.294262   -5.742321 C.ar      1 <1>         0.378500 
      4 C          -3.054525    1.071654   -4.973041 C.ar      1 <1>        -0.170200 
      5 C          -2.652389    1.560987   -3.739163 C.ar      1 <1>        -0.176500 
      6 C          -1.368945    1.294065   -3.233753 C.ar      1 <1>         0.182700 
      7 C          -0.938755    1.832209   -1.898940 C.3       1 <1>        -0.531700 
      8 S          -1.467466    0.804353   -0.434590 S.3       1 <1>         0.151300 
      9 C          -0.122723   -0.345573   -0.298752 C.ar      1 <1>         0.340600 
     10 N           0.995748   -0.205361   -0.945833 N.ar      1 <1>        -0.521600 
     11 C           1.974064   -1.162729   -0.753459 C.ar      1 <1>         0.153300 
     12 C           3.195078   -0.973059   -1.627757 C.2       1 <1>         0.362400 
     13 O           3.668204   -1.931034   -2.221311 O.2       1 <1>        -0.450200 
     14 C           3.814176    0.387968   -1.768259 C.ar      1 <1>         0.075800 
     15 C           3.528754    1.446857   -0.894151 C.ar      1 <1>        -0.230600 
     16 C           4.202453    2.649834   -1.064232 C.ar      1 <1>         0.388500 
     17 F           3.936023    3.668940   -0.224726 F         1 <1>        -0.292000 
     18 C           5.140858    2.848171   -2.070319 C.ar      1 <1>        -0.263800 
     19 C           5.400960    1.775854   -2.919136 C.ar      1 <1>         0.394500 
     20 F           6.307525    1.943058   -3.900128 F         1 <1>        -0.290300 
     21 C           4.766410    0.551011   -2.785557 C.ar      1 <1>        -0.233600 
     22 C           1.862681   -2.234675    0.097876 C.ar      1 <1>         0.056300 
     23 C           2.894843   -3.297206    0.344567 C.3       1 <1>        -0.505400 
     24 C           0.615748   -2.380161    0.850846 C.ar      1 <1>         0.584000 
     25 O           0.350446   -3.265478    1.651174 O.2       1 <1>        -0.507700 
     26 N          -0.336844   -1.377907    0.567012 N.ar      1 <1>        -0.650700 
     27 C          -0.501928    0.520982   -4.011153 C.ar      1 <1>        -0.187400 
     28 C          -0.890419    0.020799   -5.256171 C.ar      1 <1>        -0.194000 
     29 H          -0.912949   -0.391552   -8.056032 H         1 <1>         0.154500 
     30 H          -1.533521   -1.868266   -7.257951 H         1 <1>         0.156000 
     31 H          -2.406211   -1.169278   -8.650381 H         1 <1>         0.172500 
     32 H          -4.044134    1.278773   -5.368111 H         1 <1>         0.142100 
     33 H          -3.346499    2.162785   -3.156140 H         1 <1>         0.128100 
     34 H          -1.390684    2.805417   -1.687184 H         1 <1>         0.193200 
     35 H           0.145426    1.923256   -1.817609 H         1 <1>         0.222900 
     36 H           2.800437    1.353252   -0.099660 H         1 <1>         0.166800 
     37 H           5.649756    3.797617   -2.187851 H         1 <1>         0.171100 
     38 H           5.001909   -0.273128   -3.448184 H         1 <1>         0.179500 
     39 H           2.938587   -3.521944    1.414720 H         1 <1>         0.176000 
     40 H           3.881887   -3.013295   -0.019327 H         1 <1>         0.168600 
     41 H           2.609662   -4.228584   -0.160289 H         1 <1>         0.181800 
     42 H          -1.225331   -1.479965    1.048353 H         1 <1>         0.359100 
     43 H           0.493797    0.301835   -3.637701 H         1 <1>         0.150200 
     44 H          -0.189078   -0.572317   -5.831521 H         1 <1>         0.138000 
@<TRIPOS>BOND
     1    7   34 1    
     2   16   17 1    
     3    5   33 1    
     4    8    7 1    
     5    7   35 1    
     6    7    6 1    
     7    9    8 1    
     8    6    5 ar   
     9    5    4 ar   
    10   16   18 ar   
    11   15   16 ar   
    12   18   37 1    
    13   15   36 1    
    14    6   27 ar   
    15    4   32 1    
    16   19   18 ar   
    17   14   15 ar   
    18    4    3 ar   
    19   26   42 1    
    20    9   26 ar   
    21   10    9 ar   
    22   24   26 ar   
    23   11   10 ar   
    24   27   43 1    
    25   27   28 ar   
    26   19   20 1    
    27   21   19 ar   
    28   28    3 ar   
    29    3    2 1    
    30   14   21 ar   
    31   12   14 1    
    32   24   25 2    
    33   22   24 ar   
    34   11   22 ar   
    35   11   12 1    
    36   28   44 1    
    37   21   38 1    
    38    2    1 1    
    39   22   23 1    
    40   12   13 2    
    41   23   39 1    
    42   23   40 1    
    43   23   41 1    
    44    1   29 1    
    45    1   31 1    
    46    1   30 1    
@<TRIPOS>SUBSTRUCTURE
     1 ****       33 TEMP              0 ****  ****    0 ROOT 
