#	Name:			WHQ-2014-MCC-5468-3-1d
#	Creating user name:	Administrator
#	Creation time:		Sun Jul 05 16:56:41 2020

#	Modifying user name:	Administrator
#	Modification time:	Sun Jul 05 16:57:59 2020

@<TRIPOS>MOLECULE
WHQ-2014-MCC-5468-3-1d
   46    48     1     0     0
SMALL
MULLIKEN_CHARGES
INVALID_CHARGES
Gaussian 16 #p B3LYP/6-31G* opt
@<TRIPOS>ATOM
      1 C          -4.032084    7.661889   -1.324275 C.3       1 <1>        -0.218400 
      2 O          -4.199378    6.498226   -2.120612 O.3       1 <1>        -0.503800 
      3 C          -3.328502    5.464999   -1.947823 C.ar      1 <1>         0.379600 
      4 C          -2.266614    5.460355   -1.034792 C.ar      1 <1>        -0.194300 
      5 C          -1.436982    4.340931   -0.949162 C.ar      1 <1>        -0.171700 
      6 C          -1.636741    3.219882   -1.759740 C.ar      1 <1>         0.140000 
      7 C          -0.731626    2.023362   -1.659224 C.3       1 <1>        -0.501600 
      8 S          -1.454477    0.812040   -0.442861 S.3       1 <1>         0.161100 
      9 C          -0.125770   -0.348954   -0.292135 C.ar      1 <1>         0.325000 
     10 N           0.982761   -0.219456   -0.962082 N.ar      1 <1>        -0.522400 
     11 C           1.970297   -1.150875   -0.745657 C.ar      1 <1>         0.254000 
     12 C           3.239097   -0.914468   -1.573421 C.3       1 <1>        -0.328500 
     13 C           3.539350    0.524849   -1.671132 C.1       1 <1>         0.380300 
     14 N           3.804349    1.651550   -1.754447 N.1       1 <1>        -0.473800 
     15 C           3.143453   -1.553145   -2.966578 C.ar      1 <1>         0.173900 
     16 C           2.180629   -1.125974   -3.889013 C.ar      1 <1>        -0.159400 
     17 C           2.102154   -1.729235   -5.142516 C.ar      1 <1>        -0.129700 
     18 C           2.974903   -2.760547   -5.495842 C.ar      1 <1>        -0.124700 
     19 C           3.930330   -3.173862   -4.571058 C.ar      1 <1>        -0.067400 
     20 CL          5.044787   -4.466072   -4.993137 Cl        1 <1>        -0.015000 
     21 C           4.025851   -2.580483   -3.312002 C.ar      1 <1>        -0.182600 
     22 C           1.864412   -2.223283    0.102595 C.ar      1 <1>         0.067300 
     23 C           2.934168   -3.258593    0.334561 C.3       1 <1>        -0.557200 
     24 C           0.618079   -2.387403    0.847454 C.ar      1 <1>         0.580600 
     25 O           0.347693   -3.274911    1.645106 O.2       1 <1>        -0.517800 
     26 N          -0.331339   -1.374689    0.581853 N.ar      1 <1>        -0.649900 
     27 C          -2.707777    3.241637   -2.668318 C.ar      1 <1>        -0.169200 
     28 C          -3.543521    4.345000   -2.766000 C.ar      1 <1>        -0.170400 
     29 H          -4.134156    7.436374   -0.254759 H         1 <1>         0.155200 
     30 H          -4.826659    8.346518   -1.625895 H         1 <1>         0.173800 
     31 H          -3.057867    8.135542   -1.502592 H         1 <1>         0.155800 
     32 H          -2.075071    6.313986   -0.395121 H         1 <1>         0.138300 
     33 H          -0.614275    4.348194   -0.238279 H         1 <1>         0.141400 
     34 H          -0.631907    1.502784   -2.613841 H         1 <1>         0.198900 
     35 H           0.267354    2.277117   -1.301300 H         1 <1>         0.225300 
     36 H           4.083130   -1.376135   -1.051125 H         1 <1>         0.197600 
     37 H           1.500135   -0.325498   -3.618863 H         1 <1>         0.166800 
     38 H           1.355870   -1.394479   -5.857327 H         1 <1>         0.147600 
     39 H           2.918827   -3.233102   -6.470494 H         1 <1>         0.160500 
     40 H           4.788120   -2.916251   -2.616187 H         1 <1>         0.157700 
     41 H           2.571907   -3.985228    1.064406 H         1 <1>         0.204500 
     42 H           3.187846   -3.796526   -0.586444 H         1 <1>         0.170900 
     43 H           3.858092   -2.815643    0.728226 H         1 <1>         0.164700 
     44 H          -1.199418   -1.454612    1.102237 H         1 <1>         0.358000 
     45 H          -2.884569    2.382021   -3.310832 H         1 <1>         0.134700 
     46 H          -4.368722    4.368102   -3.470702 H         1 <1>         0.144000 
@<TRIPOS>BOND
     1   28   46 1    
     2   27   45 1    
     3   18   39 1    
     4   17   38 1    
     5   26   44 1    
     6   27   28 ar   
     7   28    3 ar   
     8    6   27 ar   
     9   17   18 ar   
    10   19   18 ar   
    11   16   17 ar   
    12   24   25 2    
    13    9    8 1    
    14    8    7 1    
    15   24   26 ar   
    16    9   26 ar   
    17    7   34 1    
    18   22   24 ar   
    19   19   20 1    
    20   10    9 ar   
    21    3    2 1    
    22    2    1 1    
    23   21   19 ar   
    24   16   37 1    
    25   15   16 ar   
    26    3    4 ar   
    27    7    6 1    
    28    6    5 ar   
    29    7   35 1    
    30   23   42 1    
    31   23   41 1    
    32   22   23 1    
    33   11   22 ar   
    34   11   10 ar   
    35    1   30 1    
    36   15   21 ar   
    37   21   40 1    
    38   12   15 1    
    39   23   43 1    
    40   11   12 1    
    41    1   29 1    
    42    1   31 1    
    43    4    5 ar   
    44    4   32 1    
    45    5   33 1    
    46   12   36 1    
    47   12   13 1    
    48   13   14 3    
@<TRIPOS>SUBSTRUCTURE
     1 ****       46 TEMP              0 ****  ****    0 ROOT 
