#	Name:			WHQ-2014-MCC-5468-3-1i
#	Creating user name:	Administrator
#	Creation time:		Sun Jul 05 16:56:41 2020

#	Modifying user name:	Administrator
#	Modification time:	Sun Jul 05 16:57:59 2020

@<TRIPOS>MOLECULE
WHQ-2014-MCC-5468-3-1i
   49    51     1     0     0
SMALL
MULLIKEN_CHARGES
INVALID_CHARGES
Gaussian 16 #p B3LYP/6-31G* opt
@<TRIPOS>ATOM
      1 C           3.643746   -3.146480    1.663874 C.3       1 <1>        -0.455100 
      2 C           2.921607   -3.276572    0.309062 C.3       1 <1>        -0.332200 
      3 C           1.865198   -2.221378    0.090970 C.ar      1 <1>         0.069900 
      4 C           1.944675   -1.146791   -0.761353 C.ar      1 <1>         0.222700 
      5 C           3.146373   -0.852795   -1.679092 C.3       1 <1>        -0.300300 
      6 C           4.408341   -0.757541   -0.933521 C.1       1 <1>         0.379800 
      7 N           5.407463   -0.657188   -0.350843 N.1       1 <1>        -0.499500 
      8 C           3.226033   -1.799203   -2.887067 C.ar      1 <1>         0.151500 
      9 C           4.369632   -2.543995   -3.189226 C.ar      1 <1>        -0.185900 
     10 C           4.390124   -3.372734   -4.314929 C.ar      1 <1>        -0.137700 
     11 C           3.279601   -3.468573   -5.150402 C.ar      1 <1>        -0.190300 
     12 C           2.154545   -2.714029   -4.832915 C.ar      1 <1>         0.382800 
     13 F           1.071443   -2.788911   -5.634202 F         1 <1>        -0.296300 
     14 C           2.104993   -1.882780   -3.723409 C.ar      1 <1>        -0.241400 
     15 N           0.951119   -0.207655   -0.925755 N.ar      1 <1>        -0.525900 
     16 C          -0.149356   -0.360695   -0.245839 C.ar      1 <1>         0.328500 
     17 S          -1.412111    0.857365   -0.530186 S.3       1 <1>         0.196000 
     18 C          -2.554038    0.697363    0.923421 C.3       1 <1>        -0.548000 
     19 C          -3.409694   -0.545450    1.003791 C.ar      1 <1>         0.141300 
     20 C          -4.241221   -0.940042   -0.060077 C.ar      1 <1>        -0.165400 
     21 C          -5.046587   -2.062313    0.041899 C.ar      1 <1>        -0.168500 
     22 C          -5.043122   -2.835752    1.216774 C.ar      1 <1>         0.381200 
     23 O          -5.863023   -3.920232    1.209460 O.3       1 <1>        -0.501600 
     24 C          -5.883623   -4.758992    2.356921 C.3       1 <1>        -0.222100 
     25 C          -4.223656   -2.459602    2.285017 C.ar      1 <1>        -0.181600 
     26 C          -3.419736   -1.320287    2.167727 C.ar      1 <1>        -0.212600 
     27 N          -0.339407   -1.394017    0.613208 N.ar      1 <1>        -0.651400 
     28 C           0.633649   -2.393659    0.855390 C.ar      1 <1>         0.579900 
     29 O           0.377889   -3.300701    1.637838 O.2       1 <1>        -0.521000 
     30 H           4.192696   -2.202551    1.730952 H         1 <1>         0.166100 
     31 H           4.362322   -3.964688    1.784987 H         1 <1>         0.145100 
     32 H           2.924864   -3.200921    2.486118 H         1 <1>         0.168000 
     33 H           2.423563   -4.252965    0.271927 H         1 <1>         0.166900 
     34 H           3.650774   -3.260946   -0.504707 H         1 <1>         0.146800 
     35 H           2.948602    0.155423   -2.063644 H         1 <1>         0.228600 
     36 H           5.246978   -2.474308   -2.554095 H         1 <1>         0.160600 
     37 H           5.283408   -3.947995   -4.540701 H         1 <1>         0.146700 
     38 H           3.271480   -4.104191   -6.029526 H         1 <1>         0.150100 
     39 H           1.204941   -1.310906   -3.522152 H         1 <1>         0.164800 
     40 H          -3.171933    1.595357    0.805412 H         1 <1>         0.208600 
     41 H          -1.970356    0.834449    1.838711 H         1 <1>         0.197000 
     42 H          -4.245698   -0.362518   -0.980865 H         1 <1>         0.149000 
     43 H          -5.688183   -2.371021   -0.777305 H         1 <1>         0.150900 
     44 H          -6.227245   -4.214566    3.246010 H         1 <1>         0.155600 
     45 H          -4.894692   -5.191475    2.554870 H         1 <1>         0.162800 
     46 H          -6.589654   -5.558766    2.128006 H         1 <1>         0.176800 
     47 H          -4.194916   -3.036162    3.201813 H         1 <1>         0.146300 
     48 H          -2.796332   -1.033562    3.012557 H         1 <1>         0.143700 
     49 H          -1.236085   -1.550577    1.067278 H         1 <1>         0.368800 
@<TRIPOS>BOND
     1   18   40 1    
     2   17   18 1    
     3   16   17 1    
     4   18   41 1    
     5   18   19 1    
     6    5   35 1    
     7   20   42 1    
     8   15   16 ar   
     9    4   15 ar   
    10   27   16 ar   
    11   19   20 ar   
    12   19   26 ar   
    13   20   21 ar   
    14   14   39 1    
    15    5    6 1    
    16    4    5 1    
    17    5    8 1    
    18    6    7 3    
    19    3    4 ar   
    20   26   48 1    
    21   26   25 ar   
    22   27   49 1    
    23   28   27 ar   
    24    8   14 ar   
    25   14   12 ar   
    26    8    9 ar   
    27   21   43 1    
    28   21   22 ar   
    29   12   13 1    
    30   12   11 ar   
    31    3   28 ar   
    32    2    3 1    
    33    9   36 1    
    34    9   10 ar   
    35   25   22 ar   
    36   25   47 1    
    37   28   29 2    
    38   22   23 1    
    39    1   30 1    
    40   10   11 ar   
    41   11   38 1    
    42   10   37 1    
    43    2   34 1    
    44    2    1 1    
    45    2   33 1    
    46   23   24 1    
    47    1   32 1    
    48    1   31 1    
    49   24   44 1    
    50   24   45 1    
    51   24   46 1    
@<TRIPOS>SUBSTRUCTURE
     1 ****       39 TEMP              0 ****  ****    0 ROOT 
