#	Name:			WHQ-2014-MCC-5468-3-1e
#	Creating user name:	Administrator
#	Creation time:		Sun Jul 05 16:56:41 2020

#	Modifying user name:	Administrator
#	Modification time:	Sun Jul 05 16:57:59 2020

@<TRIPOS>MOLECULE
WHQ-2014-MCC-5468-3-1e
   46    48     1     0     0
SMALL
MULLIKEN_CHARGES
INVALID_CHARGES
Gaussian 16 #p B3LYP/6-31G* opt
@<TRIPOS>ATOM
      1 C           0.401947    7.785105    1.596071 C.3       1 <1>        -0.217500 
      2 O           1.181446    6.611664    1.421654 O.3       1 <1>        -0.502800 
      3 C           0.647969    5.580381    0.708833 C.ar      1 <1>         0.378600 
      4 C          -0.622201    5.588883    0.121204 C.ar      1 <1>        -0.192300 
      5 C          -1.058746    4.467704   -0.588953 C.ar      1 <1>        -0.189100 
      6 C          -0.256775    3.333032   -0.730759 C.ar      1 <1>         0.187000 
      7 C          -0.741405    2.138926   -1.502938 C.3       1 <1>        -0.535600 
      8 S          -1.480274    0.786462   -0.452314 S.3       1 <1>         0.157800 
      9 C          -0.114331   -0.334053   -0.280773 C.ar      1 <1>         0.345400 
     10 N           0.998045   -0.208028   -0.946490 N.ar      1 <1>        -0.541300 
     11 C           1.977849   -1.159848   -0.749327 C.ar      1 <1>         0.242700 
     12 C           3.226602   -0.883468   -1.603574 C.3       1 <1>        -0.298100 
     13 C           4.441538   -0.824441   -0.778763 C.1       1 <1>         0.369300 
     14 N           5.402437   -0.763868   -0.130430 N.1       1 <1>        -0.489600 
     15 C           3.359510   -1.828773   -2.807615 C.ar      1 <1>         0.152100 
     16 C           2.279638   -1.930936   -3.694964 C.ar      1 <1>        -0.162600 
     17 C           2.352755   -2.750513   -4.817981 C.ar      1 <1>        -0.133600 
     18 C           3.521101   -3.475368   -5.057023 C.ar      1 <1>        -0.060900 
     19 CL          3.620629   -4.511837   -6.472423 Cl        1 <1>        -0.015600 
     20 C           4.607593   -3.385852   -4.191631 C.ar      1 <1>        -0.135800 
     21 C           4.521307   -2.559647   -3.068869 C.ar      1 <1>        -0.184100 
     22 C           1.856753   -2.240859    0.085680 C.ar      1 <1>         0.069800 
     23 C           2.902379   -3.297238    0.314843 C.3       1 <1>        -0.543700 
     24 C           0.616369   -2.383724    0.845581 C.ar      1 <1>         0.581500 
     25 O           0.341354   -3.268779    1.642707 O.2       1 <1>        -0.510300 
     26 N          -0.324110   -1.358702    0.589210 N.ar      1 <1>        -0.651200 
     27 C           1.016516    3.342752   -0.135090 C.ar      1 <1>        -0.182000 
     28 C           1.465688    4.446604    0.573840 C.ar      1 <1>        -0.169900 
     29 H           0.163894    8.257651    0.633974 H         1 <1>         0.153700 
     30 H           1.015014    8.465223    2.189884 H         1 <1>         0.174300 
     31 H          -0.530695    7.573024    2.134996 H         1 <1>         0.154500 
     32 H          -1.272527    6.451889    0.205548 H         1 <1>         0.135600 
     33 H          -2.047606    4.487717   -1.042276 H         1 <1>         0.127500 
     34 H          -1.547367    2.404589   -2.191573 H         1 <1>         0.191800 
     35 H           0.056951    1.650380   -2.065070 H         1 <1>         0.223100 
     36 H           3.076887    0.130465   -1.995094 H         1 <1>         0.221400 
     37 H           1.372187   -1.363648   -3.507627 H         1 <1>         0.154900 
     38 H           1.514705   -2.826726   -5.502462 H         1 <1>         0.160900 
     39 H           5.511329   -3.952436   -4.389041 H         1 <1>         0.164200 
     40 H           5.372933   -2.486706   -2.399082 H         1 <1>         0.168800 
     41 H           3.636525   -2.975729    1.064050 H         1 <1>         0.190700 
     42 H           2.420635   -4.201853    0.692894 H         1 <1>         0.191900 
     43 H           3.448104   -3.539975   -0.600621 H         1 <1>         0.164700 
     44 H          -1.186954   -1.426232    1.120374 H         1 <1>         0.359700 
     45 H           1.656886    2.470485   -0.232146 H         1 <1>         0.146700 
     46 H           2.449418    4.459978    1.032472 H         1 <1>         0.147400 
@<TRIPOS>BOND
     1    7   34 1    
     2    5   33 1    
     3   17   38 1    
     4    7    8 1    
     5    8    9 1    
     6    7   35 1    
     7    6    7 1    
     8    5    6 ar   
     9    4    5 ar   
    10   16   37 1    
    11   16   17 ar   
    12   17   18 ar   
    13   18   19 1    
    14    4   32 1    
    15   26   44 1    
    16   27    6 ar   
    17    9   26 ar   
    18    9   10 ar   
    19   15   16 ar   
    20    3    4 ar   
    21   26   24 ar   
    22   20   18 ar   
    23   10   11 ar   
    24   24   25 2    
    25   24   22 ar   
    26    1   29 1    
    27   27   45 1    
    28   28   27 ar   
    29    1   31 1    
    30   11   22 ar   
    31   11   12 1    
    32   12   15 1    
    33   15   21 ar   
    34    3   28 ar   
    35    2    3 1    
    36   22   23 1    
    37   21   20 ar   
    38   20   39 1    
    39   12   36 1    
    40    1    2 1    
    41    1   30 1    
    42   28   46 1    
    43   12   13 1    
    44   21   40 1    
    45   23   42 1    
    46   23   43 1    
    47   23   41 1    
    48   13   14 3    
@<TRIPOS>SUBSTRUCTURE
     1 ****       29 TEMP              0 ****  ****    0 ROOT 
