#	Name:			WHQ-2013-BMC-6477-3-7i
#	Creating user name:	Administrator
#	Creation time:		Sun Jul 05 16:56:39 2020

#	Modifying user name:	Administrator
#	Modification time:	Sun Jul 05 16:57:59 2020

@<TRIPOS>MOLECULE
WHQ-2013-BMC-6477-3-7i
   47    49     1     0     0
SMALL
MULLIKEN_CHARGES
INVALID_CHARGES
Gaussian 16 #p B3LYP/6-31G* opt
@<TRIPOS>ATOM
      1 C           2.601795   -4.594857   -0.487451 C.3       1 <1>        -0.449700 
      2 C           2.896439   -3.311037    0.310996 C.3       1 <1>        -0.315900 
      3 C           1.859686   -2.239254    0.088625 C.ar      1 <1>         0.057800 
      4 C           1.970041   -1.159739   -0.754257 C.ar      1 <1>         0.142100 
      5 C           3.192034   -0.959719   -1.627477 C.2       1 <1>         0.363700 
      6 O           3.651211   -1.908438   -2.248374 O.2       1 <1>        -0.453600 
      7 C           3.823116    0.395193   -1.729811 C.ar      1 <1>         0.083700 
      8 C           4.775538    0.595700   -2.741751 C.ar      1 <1>        -0.155400 
      9 C           5.431062    1.818335   -2.858290 C.ar      1 <1>        -0.135200 
     10 C           5.159917    2.854288   -1.960886 C.ar      1 <1>        -0.185700 
     11 C           4.223351    2.633913   -0.957303 C.ar      1 <1>         0.376600 
     12 F           3.959255    3.627364   -0.081613 F         1 <1>        -0.297500 
     13 C           3.546651    1.429545   -0.823659 C.ar      1 <1>        -0.230800 
     14 N           0.993003   -0.199491   -0.940254 N.ar      1 <1>        -0.519000 
     15 C          -0.120485   -0.340927   -0.284419 C.ar      1 <1>         0.324100 
     16 S          -1.466923    0.800859   -0.457545 S.3       1 <1>         0.156400 
     17 C          -0.784284    1.949474   -1.751859 C.3       1 <1>        -0.492700 
     18 C          -1.802148    3.015801   -2.050221 C.ar      1 <1>         0.137600 
     19 C          -2.750116    2.842599   -3.062379 C.ar      1 <1>        -0.173400 
     20 C          -3.698722    3.825716   -3.350958 C.ar      1 <1>        -0.194200 
     21 C          -3.708758    5.013738   -2.609875 C.ar      1 <1>         0.379200 
     22 O          -4.582458    6.041445   -2.801845 O.3       1 <1>        -0.503600 
     23 C          -5.562332    5.912104   -3.821040 C.3       1 <1>        -0.218000 
     24 C          -2.764569    5.200657   -1.588152 C.ar      1 <1>        -0.170900 
     25 C          -1.829218    4.212899   -1.315568 C.ar      1 <1>        -0.167700 
     26 N          -0.331149   -1.373104    0.583806 N.ar      1 <1>        -0.650500 
     27 C           0.617127   -2.384594    0.849143 C.ar      1 <1>         0.587000 
     28 O           0.350355   -3.271281    1.649174 O.2       1 <1>        -0.516300 
     29 H           2.630242   -4.387988   -1.560884 H         1 <1>         0.166800 
     30 H           3.353522   -5.359513   -0.261885 H         1 <1>         0.143700 
     31 H           1.618993   -4.998366   -0.224658 H         1 <1>         0.161400 
     32 H           2.899454   -3.551236    1.380186 H         1 <1>         0.162300 
     33 H           3.888778   -2.939831    0.044427 H         1 <1>         0.150700 
     34 H           4.986601   -0.221807   -3.422055 H         1 <1>         0.166000 
     35 H           6.161442    1.970808   -3.647634 H         1 <1>         0.147200 
     36 H           5.658661    3.815877   -2.026069 H         1 <1>         0.154100 
     37 H           2.821482    1.313848   -0.028179 H         1 <1>         0.160500 
     38 H          -0.547327    1.342342   -2.627476 H         1 <1>         0.205400 
     39 H           0.147504    2.361278   -1.360619 H         1 <1>         0.206800 
     40 H          -2.751001    1.923841   -3.644442 H         1 <1>         0.136800 
     41 H          -4.414029    3.657237   -4.147679 H         1 <1>         0.137000 
     42 H          -6.142772    6.835884   -3.795799 H         1 <1>         0.173900 
     43 H          -5.101587    5.800299   -4.811329 H         1 <1>         0.154600 
     44 H          -6.228471    5.059738   -3.633993 H         1 <1>         0.155200 
     45 H          -2.784992    6.129427   -1.026774 H         1 <1>         0.144800 
     46 H          -1.102877    4.371957   -0.522009 H         1 <1>         0.138600 
     47 H          -1.208020   -1.464702    1.087750 H         1 <1>         0.356100 
@<TRIPOS>BOND
     1   11   12 1    
     2   24   45 1    
     3   25   46 1    
     4   13   37 1    
     5   26   47 1    
     6   27   28 2    
     7   13   11 ar   
     8   11   10 ar   
     9   25   24 ar   
    10   24   21 ar   
    11    2   32 1    
    12   18   25 ar   
    13   27   26 ar   
    14   15   26 ar   
    15    3   27 ar   
    16    7   13 ar   
    17   10   36 1    
    18   15   16 1    
    19   16   17 1    
    20   14   15 ar   
    21   17   39 1    
    22   10    9 ar   
    23    3    2 1    
    24    4    3 ar   
    25   21   22 1    
    26   22   23 1    
    27    2   33 1    
    28    2    1 1    
    29   21   20 ar   
    30    4   14 ar   
    31   17   18 1    
    32   18   19 ar   
    33   17   38 1    
    34    5    4 1    
    35    7    5 1    
    36    7    8 ar   
    37   23   42 1    
    38    5    6 2    
    39    9    8 ar   
    40    9   35 1    
    41   23   44 1    
    42   23   43 1    
    43    1   31 1    
    44    1   30 1    
    45    1   29 1    
    46   20   19 ar   
    47   20   41 1    
    48   19   40 1    
    49    8   34 1    
@<TRIPOS>SUBSTRUCTURE
     1 ****       12 TEMP              0 ****  ****    0 ROOT 
