#	Name:			WHQ-2013-BMC-6477-3-7m
#	Creating user name:	Administrator
#	Creation time:		Sun Jul 05 16:56:40 2020

#	Modifying user name:	Administrator
#	Modification time:	Sun Jul 05 16:57:59 2020

@<TRIPOS>MOLECULE
WHQ-2013-BMC-6477-3-7m
   50    52     1     0     0
SMALL
MULLIKEN_CHARGES
INVALID_CHARGES
Gaussian 16 #p B3LYP/6-31G* opt
@<TRIPOS>ATOM
      1 C          -4.603096    7.306070   -1.910786 C.3       1 <1>        -0.218100 
      2 O          -4.529208    6.121303   -2.689845 O.3       1 <1>        -0.503600 
      3 C          -3.588946    5.190542   -2.364785 C.ar      1 <1>         0.379400 
      4 C          -3.566166    4.041526   -3.170880 C.ar      1 <1>        -0.170800 
      5 C          -2.643436    3.035673   -2.922773 C.ar      1 <1>        -0.167100 
      6 C          -1.716848    3.142667   -1.872405 C.ar      1 <1>         0.138300 
      7 C          -0.716979    2.050300   -1.609343 C.3       1 <1>        -0.492100 
      8 S          -1.465367    0.805138   -0.447065 S.3       1 <1>         0.155900 
      9 C          -0.122504   -0.342638   -0.286301 C.ar      1 <1>         0.325300 
     10 N           0.983012   -0.209848   -0.958059 N.ar      1 <1>        -0.512900 
     11 C           1.971557   -1.150667   -0.743052 C.ar      1 <1>         0.120100 
     12 C           3.256730   -0.809216   -1.479254 C.2       1 <1>         0.366800 
     13 O           4.291457   -0.669682   -0.841229 O.2       1 <1>        -0.461100 
     14 C           3.224757   -0.621945   -2.958016 C.ar      1 <1>         0.087600 
     15 C           4.380100   -0.120143   -3.581453 C.ar      1 <1>        -0.158000 
     16 C           4.432079    0.043805   -4.960005 C.ar      1 <1>        -0.200200 
     17 C           3.315437   -0.312291   -5.713115 C.ar      1 <1>         0.393500 
     18 F           3.357599   -0.159606   -7.049419 F         1 <1>        -0.288400 
     19 C           2.158701   -0.822207   -5.131991 C.ar      1 <1>        -0.208000 
     20 C           2.118324   -0.972415   -3.748239 C.ar      1 <1>        -0.160100 
     21 C           1.869935   -2.238114    0.092125 C.ar      1 <1>         0.071000 
     22 C           2.965611   -3.273310    0.288803 C.3       1 <1>        -0.144400 
     23 C           3.547128   -3.205389    1.715258 C.3       1 <1>        -0.455900 
     24 C           2.485641   -4.696312   -0.063092 C.3       1 <1>        -0.457600 
     25 C           0.622775   -2.391068    0.843591 C.ar      1 <1>         0.582300 
     26 O           0.336608   -3.266810    1.651147 O.2       1 <1>        -0.518200 
     27 N          -0.324360   -1.373524    0.581888 N.ar      1 <1>        -0.648600 
     28 C          -1.753568    4.290822   -1.076426 C.ar      1 <1>        -0.173400 
     29 C          -2.674770    5.313498   -1.311346 C.ar      1 <1>        -0.194100 
     30 H          -5.413689    7.896199   -2.341513 H         1 <1>         0.174000 
     31 H          -3.669097    7.880858   -1.961894 H         1 <1>         0.154900 
     32 H          -4.834049    7.084131   -0.860727 H         1 <1>         0.155300 
     33 H          -4.279866    3.965181   -3.985039 H         1 <1>         0.144400 
     34 H          -2.636696    2.151538   -3.555958 H         1 <1>         0.135500 
     35 H           0.193563    2.423500   -1.137150 H         1 <1>         0.206300 
     36 H          -0.434186    1.515705   -2.517811 H         1 <1>         0.205100 
     37 H           5.231780    0.134598   -2.959426 H         1 <1>         0.172900 
     38 H           5.312572    0.434636   -5.459137 H         1 <1>         0.155900 
     39 H           1.317342   -1.091951   -5.761389 H         1 <1>         0.153400 
     40 H           1.221315   -1.364428   -3.282566 H         1 <1>         0.155100 
     41 H           3.777703   -3.021627   -0.398264 H         1 <1>         0.147300 
     42 H           4.356115   -3.937488    1.823391 H         1 <1>         0.139400 
     43 H           2.780450   -3.427727    2.462798 H         1 <1>         0.171900 
     44 H           3.960559   -2.211052    1.913009 H         1 <1>         0.155800 
     45 H           3.323876   -5.397957    0.019483 H         1 <1>         0.140500 
     46 H           1.691514   -5.024094    0.611467 H         1 <1>         0.182600 
     47 H           2.109298   -4.744550   -1.092024 H         1 <1>         0.132200 
     48 H          -1.187483   -1.454698    1.110751 H         1 <1>         0.355300 
     49 H          -1.047767    4.396883   -0.255836 H         1 <1>         0.137500 
     50 H          -2.668079    6.191581   -0.676050 H         1 <1>         0.137400 
@<TRIPOS>BOND
     1   15   37 1    
     2   23   44 1    
     3   12   13 2    
     4   28   49 1    
     5   29   50 1    
     6    1   31 1    
     7   16   38 1    
     8   23   42 1    
     9   15   16 ar   
    10   14   15 ar   
    11    7   35 1    
    12   23   43 1    
    13   22   23 1    
    14   28   29 ar   
    15    6   28 ar   
    16   29    3 ar   
    17   12   14 1    
    18   11   12 1    
    19    1   32 1    
    20    1   30 1    
    21    2    1 1    
    22   16   17 ar   
    23   22   41 1    
    24   14   20 ar   
    25   10   11 ar   
    26   11   21 ar   
    27    9   10 ar   
    28    7    6 1    
    29    7   36 1    
    30    8    7 1    
    31   21   22 1    
    32   22   24 1    
    33    6    5 ar   
    34   21   25 ar   
    35    3    2 1    
    36    3    4 ar   
    37    9    8 1    
    38    9   27 ar   
    39   17   18 1    
    40   17   19 ar   
    41   25   27 ar   
    42   25   26 2    
    43   27   48 1    
    44   20   19 ar   
    45   20   40 1    
    46    5    4 ar   
    47    5   34 1    
    48   24   45 1    
    49    4   33 1    
    50   24   46 1    
    51   24   47 1    
    52   19   39 1    
@<TRIPOS>SUBSTRUCTURE
     1 ****       44 TEMP              0 ****  ****    0 ROOT 
