#	Name:			WYP-2009-EJMC-1016-5I
#	Creating user name:	Administrator
#	Creation time:		Sun Jul 05 16:57:08 2020

#	Modifying user name:	Administrator
#	Modification time:	Sun Jul 05 16:57:59 2020

@<TRIPOS>MOLECULE
WYP-2009-EJMC-1016-5I
   51    53     1     0     0
SMALL
MULLIKEN_CHARGES
INVALID_CHARGES
Gaussian 16 #p B3LYP/6-31G* opt
@<TRIPOS>ATOM
      1 C          -3.528782    0.316057    6.618143 C.3       1 <1>        -0.219700 
      2 O          -3.725131   -0.725023    5.671652 O.3       1 <1>        -0.501500 
      3 C          -3.513949   -0.453914    4.355313 C.ar      1 <1>         0.380900 
      4 C          -3.707181   -1.524839    3.472341 C.ar      1 <1>        -0.158600 
      5 C          -3.515672   -1.344941    2.107016 C.ar      1 <1>        -0.202300 
      6 C          -3.125171   -0.100979    1.582759 C.ar      1 <1>         0.135900 
      7 C          -2.969836    0.077399    0.088852 C.3       1 <1>        -0.546200 
      8 S          -1.406863    0.864697   -0.521309 S.3       1 <1>         0.189900 
      9 C          -0.154483   -0.371513   -0.259746 C.ar      1 <1>         0.327800 
     10 N           0.946383   -0.216018   -0.934432 N.ar      1 <1>        -0.514600 
     11 C           1.962013   -1.131945   -0.744147 C.ar      1 <1>         0.233100 
     12 C           3.195005   -0.817725   -1.575514 C.3       1 <1>        -0.420600 
     13 C           3.094201   -1.325559   -3.007002 C.ar      1 <1>         0.159700 
     14 C           3.981466   -2.291846   -3.486692 C.ar      1 <1>        -0.211700 
     15 C           3.891363   -2.755473   -4.802401 C.ar      1 <1>        -0.011500 
     16 C           4.822092   -3.842859   -5.270766 C.3       1 <1>         0.789900 
     17 F           4.986284   -3.824655   -6.610818 F         1 <1>        -0.267700 
     18 F           6.046074   -3.728765   -4.707711 F         1 <1>        -0.270100 
     19 F           4.355378   -5.070794   -4.945614 F         1 <1>        -0.258800 
     20 C           2.913217   -2.258160   -5.660015 C.ar      1 <1>        -0.197100 
     21 C           2.024862   -1.291147   -5.185690 C.ar      1 <1>        -0.013100 
     22 C           1.004477   -0.694594   -6.120044 C.3       1 <1>         0.791000 
     23 F           1.479920    0.415956   -6.730283 F         1 <1>        -0.259200 
     24 F           0.651977   -1.559520   -7.097027 F         1 <1>        -0.269700 
     25 F          -0.122083   -0.333757   -5.469287 F         1 <1>        -0.266700 
     26 C           2.111076   -0.827947   -3.872922 C.ar      1 <1>        -0.199600 
     27 C           1.852816   -2.224575    0.082131 C.ar      1 <1>         0.043400 
     28 C           2.890686   -3.289875    0.303467 C.3       1 <1>        -0.513600 
     29 C           0.626352   -2.398527    0.848853 C.ar      1 <1>         0.572300 
     30 O           0.387621   -3.296947    1.646309 O.2       1 <1>        -0.517400 
     31 N          -0.342183   -1.392702    0.616614 N.ar      1 <1>        -0.651000 
     32 C          -2.932613    0.957422    2.477812 C.ar      1 <1>        -0.171000 
     33 C          -3.123560    0.794707    3.849166 C.ar      1 <1>        -0.192400 
     34 H          -2.493488    0.680472    6.606179 H         1 <1>         0.157500 
     35 H          -3.745313   -0.123686    7.592908 H         1 <1>         0.176900 
     36 H          -4.211601    1.156873    6.439660 H         1 <1>         0.155200 
     37 H          -4.002681   -2.487366    3.876616 H         1 <1>         0.153200 
     38 H          -3.680317   -2.185760    1.436199 H         1 <1>         0.143600 
     39 H          -3.725096    0.766926   -0.306315 H         1 <1>         0.208200 
     40 H          -3.107415   -0.872389   -0.436645 H         1 <1>         0.196400 
     41 H           3.300551    0.272847   -1.587368 H         1 <1>         0.184300 
     42 H           4.093596   -1.225947   -1.107662 H         1 <1>         0.161100 
     43 H           4.758254   -2.684302   -2.837372 H         1 <1>         0.154100 
     44 H           2.843650   -2.615471   -6.680517 H         1 <1>         0.173300 
     45 H           1.407611   -0.086630   -3.508611 H         1 <1>         0.187700 
     46 H           2.475138   -4.276496    0.067460 H         1 <1>         0.180300 
     47 H           3.786649   -3.143091   -0.301702 H         1 <1>         0.143800 
     48 H           3.182816   -3.328517    1.359635 H         1 <1>         0.176800 
     49 H          -1.169094   -1.445517    1.205913 H         1 <1>         0.367300 
     50 H          -2.618169    1.927407    2.101257 H         1 <1>         0.148700 
     51 H          -2.963291    1.638443    4.510196 H         1 <1>         0.141600 
@<TRIPOS>BOND
     1   12   41 1    
     2   12   42 1    
     3   12   13 1    
     4   11   12 1    
     5   33   51 1    
     6    1   34 1    
     7   32   50 1    
     8   10   11 ar   
     9    9   10 ar   
    10   13   26 ar   
    11   13   14 ar   
    12   11   27 ar   
    13   14   43 1    
    14   26   45 1    
    15    1   36 1    
    16    8    9 1    
    17    7    8 1    
    18   22   23 1    
    19   26   21 ar   
    20   14   15 ar   
    21   32   33 ar   
    22   33    3 ar   
    23    1   35 1    
    24    2    1 1    
    25   28   47 1    
    26    6   32 ar   
    27    9   31 ar   
    28   16   18 1    
    29   28   48 1    
    30   27   28 1    
    31   29   27 ar   
    32   28   46 1    
    33   21   22 1    
    34   21   20 ar   
    35   15   20 ar   
    36   15   16 1    
    37   31   29 ar   
    38   31   49 1    
    39   22   25 1    
    40   22   24 1    
    41   20   44 1    
    42   29   30 2    
    43   16   17 1    
    44   16   19 1    
    45    3    2 1    
    46    3    4 ar   
    47    6    7 1    
    48    6    5 ar   
    49    7   39 1    
    50    7   40 1    
    51    4    5 ar   
    52    4   37 1    
    53    5   38 1    
@<TRIPOS>SUBSTRUCTURE
     1 ****       51 TEMP              0 ****  ****    0 ROOT 
