#	Name:			WYP-2008-BMC-3887-5O
#	Creating user name:	Administrator
#	Creation time:		Sun Jul 05 16:57:02 2020

#	Modifying user name:	Administrator
#	Modification time:	Sun Jul 05 16:57:59 2020

@<TRIPOS>MOLECULE
WYP-2008-BMC-3887-5O
   56    58     1     0     0
SMALL
MULLIKEN_CHARGES
INVALID_CHARGES
Gaussian 16 #p B3LYP/6-31G* opt
@<TRIPOS>ATOM
      1 C           2.709437   -4.534461   -0.473426 C.3       1 <1>        -0.446100 
      2 C           2.936376   -3.241760    0.332132 C.3       1 <1>        -0.333500 
      3 C           1.863263   -2.205418    0.101668 C.ar      1 <1>         0.049100 
      4 C           1.944730   -1.151358   -0.774377 C.ar      1 <1>         0.223300 
      5 C           3.155436   -0.881689   -1.652510 C.3       1 <1>        -0.419800 
      6 C           4.115583    0.140019   -1.059405 C.ar      1 <1>         0.159600 
      7 C           5.441811   -0.203097   -0.784893 C.ar      1 <1>        -0.213100 
      8 C           6.327297    0.735274   -0.246648 C.ar      1 <1>        -0.011600 
      9 C           7.732453    0.316498    0.096845 C.3       1 <1>         0.789800 
     10 F           7.795083   -0.258744    1.320000 F         1 <1>        -0.258700 
     11 F           8.583400    1.364885    0.109218 F         1 <1>        -0.268100 
     12 F           8.212982   -0.588678   -0.785358 F         1 <1>        -0.270100 
     13 C           5.901080    2.033384    0.023438 C.ar      1 <1>        -0.197500 
     14 C           4.577440    2.381996   -0.251524 C.ar      1 <1>        -0.012500 
     15 C           4.118104    3.799340   -0.028335 C.3       1 <1>         0.790500 
     16 F           4.262644    4.550081   -1.145255 F         1 <1>        -0.259500 
     17 F           4.824847    4.409021    0.949107 F         1 <1>        -0.269800 
     18 F           2.813558    3.856241    0.316511 F         1 <1>        -0.267700 
     19 C           3.691110    1.447643   -0.786778 C.ar      1 <1>        -0.199800 
     20 N           0.948152   -0.206848   -0.925295 N.ar      1 <1>        -0.512500 
     21 C          -0.144366   -0.369097   -0.239644 C.ar      1 <1>         0.318700 
     22 S          -1.402583    0.867045   -0.533058 S.3       1 <1>         0.203600 
     23 C          -2.433052    0.820888    0.998748 C.3       1 <1>        -0.566200 
     24 C          -3.488740   -0.281990    0.970837 C.2       1 <1>         0.428100 
     25 O          -3.136422   -1.425008    1.267502 O.2       1 <1>        -0.480800 
     26 C          -4.883663    0.014303    0.588826 C.ar      1 <1>         0.079900 
     27 C          -5.330989    1.282470    0.164837 C.ar      1 <1>        -0.178800 
     28 C          -6.653681    1.488566   -0.187540 C.ar      1 <1>        -0.176600 
     29 C          -7.575884    0.429316   -0.120380 C.ar      1 <1>         0.393300 
     30 O          -8.844030    0.734188   -0.479766 O.3       1 <1>        -0.494600 
     31 C          -9.834614   -0.289038   -0.442747 C.3       1 <1>        -0.225200 
     32 C          -7.148169   -0.841870    0.299571 C.ar      1 <1>        -0.193500 
     33 C          -5.817344   -1.035688    0.643016 C.ar      1 <1>        -0.160500 
     34 N          -0.354129   -1.402890    0.610768 N.ar      1 <1>        -0.665000 
     35 C           0.628475   -2.393237    0.856544 C.ar      1 <1>         0.576500 
     36 O           0.388111   -3.305728    1.637667 O.2       1 <1>        -0.520000 
     37 H           3.491596   -5.269489   -0.251830 H         1 <1>         0.146000 
     38 H           1.743259   -4.976931   -0.213732 H         1 <1>         0.174800 
     39 H           2.719495   -4.341680   -1.552786 H         1 <1>         0.138500 
     40 H           3.923595   -2.826229    0.106694 H         1 <1>         0.135100 
     41 H           2.933036   -3.492811    1.398351 H         1 <1>         0.173000 
     42 H           2.777354   -0.504857   -2.609825 H         1 <1>         0.183700 
     43 H           3.694428   -1.809140   -1.859096 H         1 <1>         0.163600 
     44 H           5.796785   -1.206651   -0.999501 H         1 <1>         0.155600 
     45 H           6.586789    2.761678    0.439357 H         1 <1>         0.172800 
     46 H           2.660856    1.723650   -0.985285 H         1 <1>         0.187900 
     47 H          -1.780238    0.658509    1.860128 H         1 <1>         0.220900 
     48 H          -2.852498    1.824454    1.080610 H         1 <1>         0.204400 
     49 H          -4.644804    2.119817    0.092870 H         1 <1>         0.143700 
     50 H          -7.004851    2.459751   -0.519898 H         1 <1>         0.154400 
     51 H         -10.760394    0.185434   -0.770452 H         1 <1>         0.182200 
     52 H          -9.964873   -0.681079    0.573266 H         1 <1>         0.163500 
     53 H          -9.584187   -1.111005   -1.124094 H         1 <1>         0.164200 
     54 H          -7.841447   -1.672740    0.356756 H         1 <1>         0.148500 
     55 H          -5.472468   -2.012792    0.964185 H         1 <1>         0.177200 
     56 H          -1.275149   -1.561948    1.040290 H         1 <1>         0.399200 
@<TRIPOS>BOND
     1    5   42 1    
     2    5   43 1    
     3    1   39 1    
     4    5    6 1    
     5    4    5 1    
     6   31   53 1    
     7    6    7 ar   
     8    6   19 ar   
     9    7   44 1    
    10   31   51 1    
    11   20    4 ar   
    12   21   20 ar   
    13   19   46 1    
    14   15   16 1    
    15    4    3 ar   
    16    7    8 ar   
    17    9   12 1    
    18    1   37 1    
    19    1   38 1    
    20    2    1 1    
    21   19   14 ar   
    22   30   31 1    
    23   31   52 1    
    24   29   30 1    
    25   22   21 1    
    26   23   22 1    
    27   28   50 1    
    28   21   34 ar   
    29   28   29 ar   
    30   32   29 ar   
    31   27   28 ar   
    32    8   13 ar   
    33    8    9 1    
    34   14   13 ar   
    35   14   15 1    
    36    3    2 1    
    37   35    3 ar   
    38    2   40 1    
    39   27   49 1    
    40   32   54 1    
    41   33   32 ar   
    42   26   27 ar   
    43    2   41 1    
    44   13   45 1    
    45    9   11 1    
    46    9   10 1    
    47   15   18 1    
    48   15   17 1    
    49   26   33 ar   
    50   33   55 1    
    51   24   26 1    
    52   34   35 ar   
    53   34   56 1    
    54   35   36 2    
    55   24   23 1    
    56   24   25 2    
    57   23   48 1    
    58   23   47 1    
@<TRIPOS>SUBSTRUCTURE
     1 ****       53 TEMP              0 ****  ****    0 ROOT 
