#	Name:			WYP-2009-EJMC-1016-5E
#	Creating user name:	Administrator
#	Creation time:		Sun Jul 05 16:57:07 2020

#	Modifying user name:	Administrator
#	Modification time:	Sun Jul 05 16:57:59 2020

@<TRIPOS>MOLECULE
WYP-2009-EJMC-1016-5E
   45    47     1     0     0
SMALL
MULLIKEN_CHARGES
INVALID_CHARGES
Gaussian 16 #p B3LYP/6-31G* opt
@<TRIPOS>ATOM
      1 C          -3.936410    1.616039   -7.482562 C.3       1 <1>        -0.215300 
      2 O          -2.706409    1.082301   -7.020695 O.3       1 <1>        -0.503200 
      3 C          -2.335180    1.332802   -5.731776 C.ar      1 <1>         0.372700 
      4 C          -1.109711    0.777947   -5.331858 C.ar      1 <1>        -0.181100 
      5 C          -0.645986    0.977715   -4.038435 C.ar      1 <1>        -0.195500 
      6 C          -1.378454    1.741388   -3.114056 C.ar      1 <1>         0.185700 
      7 C          -0.852894    1.985463   -1.727062 C.3       1 <1>        -0.533700 
      8 S          -1.470266    0.799121   -0.427545 S.3       1 <1>         0.145200 
      9 C          -0.116414   -0.345436   -0.296953 C.ar      1 <1>         0.340600 
     10 N           0.995766   -0.210097   -0.952275 N.ar      1 <1>        -0.517200 
     11 C           1.979872   -1.161204   -0.757938 C.ar      1 <1>         0.244000 
     12 C           3.215529   -0.923582   -1.604342 C.3       1 <1>        -0.407800 
     13 C           2.917490   -0.979208   -3.094314 C.ar      1 <1>         0.198500 
     14 C           3.252426    0.085890   -3.936841 C.ar      1 <1>        -0.198300 
     15 C           2.948207    0.055971   -5.299452 C.ar      1 <1>        -0.142400 
     16 C           2.297667   -1.058659   -5.820307 C.ar      1 <1>         0.073100 
     17 BR          1.792319   -1.079536   -7.664961 Br        1 <1>        -0.127600 
     18 C           1.971094   -2.145914   -5.011505 C.ar      1 <1>        -0.143600 
     19 C           2.285346   -2.097928   -3.655066 C.ar      1 <1>        -0.177900 
     20 C           1.860706   -2.226078    0.101196 C.ar      1 <1>         0.037200 
     21 C           2.924652   -3.268130    0.345719 C.3       1 <1>        -0.544900 
     22 C           0.617054   -2.381105    0.849745 C.ar      1 <1>         0.577000 
     23 O           0.340291   -3.264992    1.651456 O.2       1 <1>        -0.524000 
     24 N          -0.335354   -1.377740    0.566587 N.ar      1 <1>        -0.652100 
     25 C          -2.594341    2.290649   -3.529318 C.ar      1 <1>        -0.187700 
     26 C          -3.081932    2.092119   -4.822655 C.ar      1 <1>        -0.193000 
     27 H          -3.941774    2.713639   -7.442562 H         1 <1>         0.151100 
     28 H          -4.787072    1.231051   -6.904375 H         1 <1>         0.152200 
     29 H          -4.031613    1.293488   -8.520982 H         1 <1>         0.171100 
     30 H          -0.531476    0.211594   -6.055434 H         1 <1>         0.158900 
     31 H           0.301512    0.542001   -3.736648 H         1 <1>         0.164100 
     32 H          -1.158915    2.963546   -1.346370 H         1 <1>         0.189200 
     33 H           0.235185    1.909610   -1.678921 H         1 <1>         0.224300 
     34 H           3.992103   -1.650467   -1.347314 H         1 <1>         0.167000 
     35 H           3.612038    0.068710   -1.357700 H         1 <1>         0.166900 
     36 H           3.744673    0.963241   -3.524594 H         1 <1>         0.136900 
     37 H           3.196135    0.894253   -5.941431 H         1 <1>         0.156700 
     38 H           1.465715   -3.007717   -5.433626 H         1 <1>         0.157700 
     39 H           2.009803   -2.936273   -3.020164 H         1 <1>         0.145000 
     40 H           3.255194   -3.750785   -0.581284 H         1 <1>         0.158000 
     41 H           3.812206   -2.841132    0.829029 H         1 <1>         0.163700 
     42 H           2.521316   -4.037869    1.006948 H         1 <1>         0.198200 
     43 H          -1.216694   -1.469807    1.061891 H         1 <1>         0.355000 
     44 H          -3.179514    2.891227   -2.835636 H         1 <1>         0.123800 
     45 H          -4.028671    2.536069   -5.108533 H         1 <1>         0.131500 
@<TRIPOS>BOND
     1   14   36 1    
     2   12   35 1    
     3   15   37 1    
     4    7   32 1    
     5    7   33 1    
     6   14   15 ar   
     7   13   14 ar   
     8   15   16 ar   
     9    6    7 1    
    10    7    8 1    
    11   12   34 1    
    12   12   13 1    
    13   11   12 1    
    14   25   44 1    
    15   13   19 ar   
    16   25    6 ar   
    17    5    6 ar   
    18   10   11 ar   
    19    9   10 ar   
    20    5   31 1    
    21   26   25 ar   
    22    4    5 ar   
    23   11   20 ar   
    24    8    9 1    
    25   21   41 1    
    26   16   17 1    
    27   18   16 ar   
    28    9   24 ar   
    29   26   45 1    
    30    3   26 ar   
    31    3    4 ar   
    32    4   30 1    
    33    1   27 1    
    34    2    3 1    
    35   20   21 1    
    36   22   20 ar   
    37   19   18 ar   
    38   19   39 1    
    39   21   40 1    
    40   21   42 1    
    41   24   22 ar   
    42   24   43 1    
    43   18   38 1    
    44    2    1 1    
    45   22   23 2    
    46    1   29 1    
    47    1   28 1    
@<TRIPOS>SUBSTRUCTURE
     1 ****       32 TEMP              0 ****  ****    0 ROOT 
