#	Name:			WYP-2009-EJMC-1016-5V
#	Creating user name:	Administrator
#	Creation time:		Sun Jul 05 16:57:10 2020

#	Modifying user name:	Administrator
#	Modification time:	Sun Jul 05 16:57:59 2020

@<TRIPOS>MOLECULE
WYP-2009-EJMC-1016-5V
   48    50     1     0     0
SMALL
MULLIKEN_CHARGES
INVALID_CHARGES
Gaussian 16 #p B3LYP/6-31G* opt
@<TRIPOS>ATOM
      1 C           3.615092   -3.234215    1.643748 C.3       1 <1>        -0.449000 
      2 C           2.870089   -3.329122    0.299145 C.3       1 <1>        -0.335600 
      3 C           1.854570   -2.232485    0.088487 C.ar      1 <1>         0.054800 
      4 C           1.984834   -1.152121   -0.751551 C.ar      1 <1>         0.246200 
      5 C           3.201488   -0.881134   -1.636238 C.3       1 <1>        -0.445000 
      6 C           4.569996   -0.821574   -0.981965 C.ar      1 <1>         0.202500 
      7 C           4.883043    0.132822    0.005353 C.ar      1 <1>        -0.133800 
      8 CL          3.664892    1.294550    0.516268 Cl        1 <1>        -0.002100 
      9 C           6.138754    0.230002    0.601414 C.ar      1 <1>        -0.120100 
     10 C           7.151531   -0.638211    0.203538 C.ar      1 <1>        -0.125400 
     11 C           6.906020   -1.580807   -0.789889 C.ar      1 <1>        -0.118000 
     12 C           5.638153   -1.654822   -1.365877 C.ar      1 <1>        -0.144800 
     13 CL          5.427785   -2.863363   -2.636989 Cl        1 <1>        -0.011500 
     14 N           0.985099   -0.215889   -0.949598 N.ar      1 <1>        -0.523200 
     15 C          -0.119842   -0.345654   -0.280987 C.ar      1 <1>         0.327100 
     16 S          -1.466531    0.799410   -0.460010 S.3       1 <1>         0.149200 
     17 C          -0.742190    1.988571   -1.690421 C.3       1 <1>        -0.490500 
     18 C          -1.747610    3.066898   -1.989843 C.ar      1 <1>         0.138500 
     19 C          -2.695100    2.906183   -3.014407 C.ar      1 <1>        -0.167700 
     20 C          -3.622807    3.898776   -3.296499 C.ar      1 <1>        -0.171100 
     21 C          -3.629603    5.088180   -2.551433 C.ar      1 <1>         0.378500 
     22 O          -4.576737    6.002254   -2.906206 O.3       1 <1>        -0.504200 
     23 C          -4.636837    7.223956   -2.186227 C.3       1 <1>        -0.217300 
     24 C          -2.694795    5.265325   -1.524477 C.ar      1 <1>        -0.194300 
     25 C          -1.768886    4.255210   -1.254697 C.ar      1 <1>        -0.174000 
     26 N          -0.328199   -1.362340    0.602216 N.ar      1 <1>        -0.650100 
     27 C           0.616957   -2.380248    0.848182 C.ar      1 <1>         0.581900 
     28 O           0.344767   -3.278202    1.637535 O.2       1 <1>        -0.527800 
     29 H           2.904066   -3.266415    2.473990 H         1 <1>         0.173300 
     30 H           4.194059   -2.307440    1.715792 H         1 <1>         0.145000 
     31 H           4.307142   -4.076867    1.754269 H         1 <1>         0.140700 
     32 H           3.586198   -3.348399   -0.525485 H         1 <1>         0.148400 
     33 H           2.331305   -4.283991    0.274684 H         1 <1>         0.164900 
     34 H           3.004440    0.079743   -2.121845 H         1 <1>         0.193900 
     35 H           3.225049   -1.632736   -2.429718 H         1 <1>         0.193000 
     36 H           6.312825    0.983709    1.361158 H         1 <1>         0.161300 
     37 H           8.134191   -0.573971    0.660913 H         1 <1>         0.150800 
     38 H           7.685181   -2.256394   -1.124029 H         1 <1>         0.161500 
     39 H           0.176432    2.384600   -1.254039 H         1 <1>         0.205200 
     40 H          -0.475091    1.410897   -2.577215 H         1 <1>         0.202800 
     41 H          -2.701211    1.989810   -3.599753 H         1 <1>         0.137000 
     42 H          -4.352701    3.780313   -4.091016 H         1 <1>         0.143300 
     43 H          -3.704955    7.796256   -2.284169 H         1 <1>         0.153900 
     44 H          -5.456740    7.791760   -2.629496 H         1 <1>         0.172900 
     45 H          -4.846475    7.054902   -1.121892 H         1 <1>         0.154700 
     46 H          -2.675695    6.175254   -0.935886 H         1 <1>         0.135800 
     47 H          -1.047063    4.403085   -0.454835 H         1 <1>         0.136200 
     48 H          -1.197373   -1.445162    1.120108 H         1 <1>         0.352000 
@<TRIPOS>BOND
     1    9   36 1    
     2    1   29 1    
     3    7    8 1    
     4    9   10 ar   
     5    7    9 ar   
     6    1   30 1    
     7   24   46 1    
     8   10   37 1    
     9   23   45 1    
    10   25   47 1    
    11    1   31 1    
    12    2    1 1    
    13   11   10 ar   
    14    6    7 ar   
    15   26   48 1    
    16   27   28 2    
    17   23   43 1    
    18   25   24 ar   
    19   24   21 ar   
    20   18   25 ar   
    21   23   44 1    
    22   22   23 1    
    23   27   26 ar   
    24   15   26 ar   
    25    3   27 ar   
    26   15   16 1    
    27   16   17 1    
    28   17   39 1    
    29   14   15 ar   
    30    3    2 1    
    31    4    3 ar   
    32    2   33 1    
    33    2   32 1    
    34   11   38 1    
    35   12   11 ar   
    36    6   12 ar   
    37    5    6 1    
    38   21   22 1    
    39   21   20 ar   
    40    4   14 ar   
    41   17   18 1    
    42   18   19 ar   
    43   17   40 1    
    44    4    5 1    
    45   12   13 1    
    46    5   34 1    
    47    5   35 1    
    48   20   19 ar   
    49   20   42 1    
    50   19   41 1    
@<TRIPOS>SUBSTRUCTURE
     1 ****       46 TEMP              0 ****  ****    0 ROOT 
