#	Name:			WYP-2009-EJMC-1016-5H
#	Creating user name:	Administrator
#	Creation time:		Sun Jul 05 16:57:08 2020

#	Modifying user name:	Administrator
#	Modification time:	Sun Jul 05 16:57:59 2020

@<TRIPOS>MOLECULE
WYP-2009-EJMC-1016-5H
   49    51     1     0     0
SMALL
MULLIKEN_CHARGES
INVALID_CHARGES
Gaussian 16 #p B3LYP/6-31G* opt
@<TRIPOS>ATOM
      1 C           4.780185    3.107825    1.123544 C.3       1 <1>        -0.530700 
      2 C           5.066086    1.766276    0.488167 C.ar      1 <1>         0.190800 
      3 C           6.343306    1.192507    0.587670 C.ar      1 <1>        -0.237700 
      4 C           6.635086   -0.046422    0.016723 C.ar      1 <1>         0.188000 
      5 C           8.011984   -0.658818    0.135115 C.3       1 <1>        -0.530900 
      6 C           5.614385   -0.722141   -0.670761 C.ar      1 <1>        -0.253400 
      7 C           4.335222   -0.177610   -0.788134 C.ar      1 <1>         0.186600 
      8 C           3.247385   -0.915574   -1.561370 C.3       1 <1>        -0.414600 
      9 C           1.985308   -1.159378   -0.756874 C.ar      1 <1>         0.241200 
     10 N           0.989637   -0.217322   -0.961630 N.ar      1 <1>        -0.530300 
     11 C          -0.116555   -0.349406   -0.294731 C.ar      1 <1>         0.344300 
     12 S          -1.471389    0.804074   -0.428597 S.3       1 <1>         0.163300 
     13 C          -0.857831    1.938841   -1.757029 C.3       1 <1>        -0.538000 
     14 C          -1.394770    1.617321   -3.127591 C.ar      1 <1>         0.199400 
     15 C          -0.790957    0.622965   -3.913529 C.ar      1 <1>        -0.188500 
     16 C          -1.279067    0.325120   -5.181138 C.ar      1 <1>        -0.147100 
     17 C          -2.381197    1.033094   -5.658750 C.ar      1 <1>         0.274600 
     18 N          -2.901339    0.726073   -7.000389 N.pl3     1 <1>         0.380200 
     19 O          -3.874590    1.367057   -7.396548 O.2       1 <1>        -0.394300 
     20 O          -2.332035   -0.153266   -7.646402 O.2       1 <1>        -0.393300 
     21 C          -3.002315    2.025758   -4.904939 C.ar      1 <1>        -0.145300 
     22 C          -2.500541    2.311442   -3.638249 C.ar      1 <1>        -0.190600 
     23 N          -0.333123   -1.371112    0.574819 N.ar      1 <1>        -0.652300 
     24 C           0.619363   -2.384379    0.849468 C.ar      1 <1>         0.573200 
     25 O           0.336441   -3.270081    1.645010 O.2       1 <1>        -0.519200 
     26 C           1.861973   -2.219925    0.106809 C.ar      1 <1>         0.064800 
     27 C           2.937677   -3.247714    0.340309 C.3       1 <1>        -0.549100 
     28 C           4.073662    1.070658   -0.203119 C.ar      1 <1>        -0.243200 
     29 H           3.770168    3.455913    0.885788 H         1 <1>         0.152800 
     30 H           5.488321    3.872460    0.781577 H         1 <1>         0.161300 
     31 H           4.865792    3.058036    2.216587 H         1 <1>         0.164600 
     32 H           7.125888    1.728335    1.122223 H         1 <1>         0.115100 
     33 H           7.988376   -1.584955    0.723492 H         1 <1>         0.164100 
     34 H           8.713170    0.025747    0.622599 H         1 <1>         0.155900 
     35 H           8.422731   -0.914998   -0.849178 H         1 <1>         0.161500 
     36 H           5.829133   -1.686604   -1.128191 H         1 <1>         0.116600 
     37 H           2.965016   -0.331230   -2.444760 H         1 <1>         0.169100 
     38 H           3.647875   -1.870421   -1.917297 H         1 <1>         0.157600 
     39 H           0.231327    1.865079   -1.718674 H         1 <1>         0.236400 
     40 H          -1.162515    2.937085   -1.433676 H         1 <1>         0.196700 
     41 H           0.065543    0.084143   -3.520380 H         1 <1>         0.170600 
     42 H          -0.823729   -0.436155   -5.802414 H         1 <1>         0.185900 
     43 H          -3.854347    2.554359   -5.313894 H         1 <1>         0.186000 
     44 H          -2.974089    3.086100   -3.040672 H         1 <1>         0.145100 
     45 H          -1.212484   -1.464114    1.073879 H         1 <1>         0.356700 
     46 H           2.633849   -3.910508    1.153078 H         1 <1>         0.195000 
     47 H           3.108210   -3.865214   -0.551629 H         1 <1>         0.160600 
     48 H           3.891710   -2.778942    0.603396 H         1 <1>         0.172700 
     49 H           3.079337    1.501625   -0.292145 H         1 <1>         0.127600 
@<TRIPOS>BOND
     1   27   47 1    
     2   18   20 2    
     3    6   36 1    
     4    8   38 1    
     5    5   35 1    
     6   16   42 1    
     7   27   46 1    
     8   27   48 1    
     9   26   27 1    
    10    5   33 1    
    11    5   34 1    
    12    4    5 1    
    13    6    4 ar   
    14    7    6 ar   
    15    8   37 1    
    16    9    8 1    
    17    8    7 1    
    18   18   19 2    
    19   17   18 1    
    20    9   26 ar   
    21   24   26 ar   
    22   16   17 ar   
    23   15   16 ar   
    24   10    9 ar   
    25   15   41 1    
    26    4    3 ar   
    27   24   25 2    
    28    7   28 ar   
    29   23   24 ar   
    30   21   17 ar   
    31   14   15 ar   
    32   11   10 ar   
    33   11   23 ar   
    34   23   45 1    
    35    3   32 1    
    36    2    3 ar   
    37   12   11 1    
    38   28   49 1    
    39   28    2 ar   
    40   21   43 1    
    41   22   21 ar   
    42   14   22 ar   
    43   13   14 1    
    44    2    1 1    
    45   13   39 1    
    46   22   44 1    
    47   12   13 1    
    48   13   40 1    
    49    1   30 1    
    50    1   29 1    
    51    1   31 1    
@<TRIPOS>SUBSTRUCTURE
     1 ****       47 TEMP              0 ****  ****    0 ROOT 
