#	Name:			WYP-2009-EJMC-1016-5M
#	Creating user name:	Administrator
#	Creation time:		Sun Jul 05 16:57:09 2020

#	Modifying user name:	Administrator
#	Modification time:	Sun Jul 05 16:57:59 2020

@<TRIPOS>MOLECULE
WYP-2009-EJMC-1016-5M
   48    50     1     0     0
SMALL
MULLIKEN_CHARGES
INVALID_CHARGES
Gaussian 16 #p B3LYP/6-31G* opt
@<TRIPOS>ATOM
      1 C           2.735483   -4.526455   -0.486683 C.3       1 <1>        -0.445500 
      2 C           2.943674   -3.240737    0.334565 C.3       1 <1>        -0.334500 
      3 C           1.865155   -2.209614    0.103816 C.ar      1 <1>         0.048200 
      4 C           1.950593   -1.144151   -0.763334 C.ar      1 <1>         0.227900 
      5 C           3.177492   -0.862640   -1.614126 C.3       1 <1>        -0.418900 
      6 C           4.166407    0.089570   -0.953236 C.ar      1 <1>         0.166200 
      7 C           5.484027   -0.307387   -0.699897 C.ar      1 <1>        -0.183900 
      8 C           6.391243    0.569859   -0.102431 C.ar      1 <1>        -0.129900 
      9 C           5.999082    1.859303    0.253615 C.ar      1 <1>        -0.147900 
     10 C           4.685083    2.247577   -0.004118 C.ar      1 <1>         0.084600 
     11 BR          4.128627    4.018865    0.472589 Br        1 <1>        -0.137800 
     12 C           3.768636    1.387531   -0.599744 C.ar      1 <1>        -0.197000 
     13 N           0.946238   -0.215220   -0.937749 N.ar      1 <1>        -0.517000 
     14 C          -0.150691   -0.362824   -0.253223 C.ar      1 <1>         0.327500 
     15 S          -1.408894    0.863157   -0.517825 S.3       1 <1>         0.216400 
     16 C          -2.763940    0.367541    0.653153 C.3       1 <1>        -0.545800 
     17 C          -3.892374    1.359539    0.539370 C.ar      1 <1>         0.142000 
     18 C          -3.925906    2.503602    1.340786 C.ar      1 <1>        -0.169200 
     19 C          -4.961663    3.434182    1.239361 C.ar      1 <1>        -0.194600 
     20 C          -5.989974    3.224780    0.312174 C.ar      1 <1>         0.381000 
     21 O          -7.049630    4.059611    0.126620 O.3       1 <1>        -0.503200 
     22 C          -7.125657    5.239560    0.913345 C.3       1 <1>        -0.219000 
     23 C          -5.966126    2.081719   -0.502219 C.ar      1 <1>        -0.171200 
     24 C          -4.929018    1.167325   -0.388322 C.ar      1 <1>        -0.164200 
     25 N          -0.338804   -1.397175    0.609840 N.ar      1 <1>        -0.651300 
     26 C           0.634376   -2.399077    0.852740 C.ar      1 <1>         0.577700 
     27 O           0.373682   -3.302625    1.640007 O.2       1 <1>        -0.530200 
     28 H           1.771397   -4.981987   -0.240616 H         1 <1>         0.170700 
     29 H           2.752062   -4.321618   -1.563727 H         1 <1>         0.139800 
     30 H           3.522467   -5.257227   -0.267457 H         1 <1>         0.144400 
     31 H           3.928624   -2.813197    0.123518 H         1 <1>         0.140400 
     32 H           2.933261   -3.502771    1.398308 H         1 <1>         0.170100 
     33 H           3.688609   -1.794896   -1.867841 H         1 <1>         0.159200 
     34 H           2.819523   -0.420903   -2.550667 H         1 <1>         0.182200 
     35 H           5.806291   -1.307701   -0.977907 H         1 <1>         0.130600 
     36 H           7.411883    0.248897    0.087690 H         1 <1>         0.139000 
     37 H           6.694675    2.549606    0.717923 H         1 <1>         0.151600 
     38 H           2.751209    1.712108   -0.787870 H         1 <1>         0.178300 
     39 H          -3.109808   -0.637406    0.389619 H         1 <1>         0.189100 
     40 H          -2.361097    0.355957    1.670888 H         1 <1>         0.192000 
     41 H          -3.131201    2.678001    2.062350 H         1 <1>         0.138700 
     42 H          -4.956320    4.307089    1.881697 H         1 <1>         0.139400 
     43 H          -7.194104    5.006109    1.983943 H         1 <1>         0.155000 
     44 H          -6.262407    5.895074    0.740195 H         1 <1>         0.157000 
     45 H          -8.036353    5.750567    0.596735 H         1 <1>         0.174900 
     46 H          -6.772256    1.934709   -1.213805 H         1 <1>         0.146400 
     47 H          -4.922596    0.287579   -1.027452 H         1 <1>         0.137600 
     48 H          -1.200682   -1.519875    1.127994 H         1 <1>         0.353000 
@<TRIPOS>BOND
     1    5   34 1    
     2   23   46 1    
     3    5   33 1    
     4    5    6 1    
     5    4    5 1    
     6   24   47 1    
     7    1   29 1    
     8    4   13 ar   
     9   13   14 ar   
    10   24   23 ar   
    11   23   20 ar   
    12    6   12 ar   
    13    6    7 ar   
    14   12   38 1    
    15   17   24 ar   
    16    7   35 1    
    17   14   15 1    
    18   15   16 1    
    19    3    4 ar   
    20   12   10 ar   
    21    7    8 ar   
    22   20   21 1    
    23   21   22 1    
    24   14   25 ar   
    25   20   19 ar   
    26    1   28 1    
    27    1   30 1    
    28    2    1 1    
    29   22   45 1    
    30   10    9 ar   
    31   10   11 1    
    32   22   44 1    
    33    8   36 1    
    34    8    9 ar   
    35   16   17 1    
    36   17   18 ar   
    37   22   43 1    
    38   16   39 1    
    39    3    2 1    
    40    3   26 ar   
    41    9   37 1    
    42    2   31 1    
    43   16   40 1    
    44    2   32 1    
    45   25   26 ar   
    46   25   48 1    
    47   19   18 ar   
    48   19   42 1    
    49   18   41 1    
    50   26   27 2    
@<TRIPOS>SUBSTRUCTURE
     1 ****       46 TEMP              0 ****  ****    0 ROOT 
