#	Name:			WYP-2008-BMC-3887-5K
#	Creating user name:	Administrator
#	Creation time:		Sun Jul 05 16:57:02 2020

#	Modifying user name:	Administrator
#	Modification time:	Sun Jul 05 16:57:59 2020

@<TRIPOS>MOLECULE
WYP-2008-BMC-3887-5K
   60    63     1     0     0
SMALL
MULLIKEN_CHARGES
INVALID_CHARGES
Gaussian 16 #p B3LYP/6-31G* opt
@<TRIPOS>ATOM
      1 C           3.727574   -3.014245    1.624977 C.3       1 <1>        -0.444100 
      2 C           2.899274   -3.292737    0.357210 C.3       1 <1>        -0.334200 
      3 C           1.855224   -2.233663    0.089599 C.ar      1 <1>         0.023100 
      4 C           1.988395   -1.156723   -0.753546 C.ar      1 <1>         0.257500 
      5 C           3.233102   -0.861800   -1.570799 C.3       1 <1>        -0.423900 
      6 C           2.989210   -0.948695   -3.068497 C.ar      1 <1>         0.189900 
      7 C           2.873474    0.205276   -3.850662 C.ar      1 <1>        -0.189600 
      8 C           2.644921    0.123097   -5.222986 C.ar      1 <1>        -0.176600 
      9 C           2.522741   -1.119390   -5.865309 C.ar      1 <1>         0.088800 
     10 C           2.281819   -1.209122   -7.327926 C.ar      1 <1>         0.089300 
     11 C           1.436642   -2.196714   -7.862335 C.ar      1 <1>        -0.174700 
     12 C           1.210393   -2.281631   -9.235323 C.ar      1 <1>        -0.133800 
     13 C           1.822946   -1.379075  -10.106529 C.ar      1 <1>        -0.127200 
     14 C           2.664603   -0.391703   -9.591019 C.ar      1 <1>        -0.133800 
     15 C           2.891925   -0.308741   -8.218131 C.ar      1 <1>        -0.174300 
     16 C           2.638866   -2.276047   -5.075418 C.ar      1 <1>        -0.173400 
     17 C           2.866369   -2.190841   -3.704651 C.ar      1 <1>        -0.187000 
     18 N           0.992773   -0.214944   -0.946253 N.ar      1 <1>        -0.507600 
     19 C          -0.111048   -0.344948   -0.288144 C.ar      1 <1>         0.343700 
     20 S          -1.477098    0.798298   -0.441898 S.3       1 <1>         0.154700 
     21 C          -0.792176    2.006698   -1.653116 C.3       1 <1>        -0.552900 
     22 C          -0.693695    3.412033   -1.051547 C.2       1 <1>         0.416200 
     23 O           0.405991    3.850334   -0.748140 O.2       1 <1>        -0.453700 
     24 C          -1.932681    4.210828   -0.860825 C.ar      1 <1>         0.083600 
     25 C          -1.817738    5.492376   -0.284386 C.ar      1 <1>        -0.161500 
     26 C          -2.930964    6.285507   -0.082589 C.ar      1 <1>        -0.171200 
     27 C          -4.205929    5.818622   -0.453947 C.ar      1 <1>         0.388600 
     28 O          -5.234403    6.670775   -0.215604 O.3       1 <1>        -0.497600 
     29 C          -6.552535    6.263383   -0.560524 C.3       1 <1>        -0.221200 
     30 C          -4.341267    4.547701   -1.029067 C.ar      1 <1>        -0.200700 
     31 C          -3.207888    3.759697   -1.227201 C.ar      1 <1>        -0.192000 
     32 N          -0.335560   -1.368964    0.581086 N.ar      1 <1>        -0.656400 
     33 C           0.614756   -2.380715    0.845143 C.ar      1 <1>         0.584800 
     34 O           0.344212   -3.265870    1.648286 O.2       1 <1>        -0.525800 
     35 H           3.073162   -2.945238    2.499246 H         1 <1>         0.171100 
     36 H           4.285777   -2.074836    1.538684 H         1 <1>         0.142200 
     37 H           4.446146   -3.822695    1.801493 H         1 <1>         0.145200 
     38 H           3.565572   -3.404858   -0.503894 H         1 <1>         0.139000 
     39 H           2.378701   -4.247869    0.484987 H         1 <1>         0.170400 
     40 H           4.045761   -1.533016   -1.282576 H         1 <1>         0.162200 
     41 H           3.552239    0.156339   -1.318511 H         1 <1>         0.173500 
     42 H           2.956635    1.180967   -3.378401 H         1 <1>         0.136800 
     43 H           2.536388    1.036972   -5.800727 H         1 <1>         0.132100 
     44 H           0.933235   -2.887483   -7.191562 H         1 <1>         0.131800 
     45 H           0.546705   -3.049628   -9.624153 H         1 <1>         0.129700 
     46 H           1.646511   -1.444756  -11.176782 H         1 <1>         0.128900 
     47 H           3.154245    0.311056  -10.260282 H         1 <1>         0.130000 
     48 H           3.570717    0.446124   -7.831014 H         1 <1>         0.132500 
     49 H           2.578415   -3.253385   -5.546269 H         1 <1>         0.132600 
     50 H           2.958182   -3.105286   -3.122594 H         1 <1>         0.130900 
     51 H          -1.418142    1.975207   -2.548418 H         1 <1>         0.197200 
     52 H           0.213741    1.652132   -1.888186 H         1 <1>         0.256500 
     53 H          -0.829659    5.839830   -0.001457 H         1 <1>         0.168700 
     54 H          -2.852066    7.272922    0.361292 H         1 <1>         0.149500 
     55 H          -7.202488    7.093464   -0.280087 H         1 <1>         0.178200 
     56 H          -6.644931    6.076285   -1.637809 H         1 <1>         0.158700 
     57 H          -6.851172    5.363889   -0.007594 H         1 <1>         0.159500 
     58 H          -5.312437    4.167694   -1.323303 H         1 <1>         0.140400 
     59 H          -3.340012    2.779767   -1.676342 H         1 <1>         0.142200 
     60 H          -1.205185   -1.447028    1.099225 H         1 <1>         0.353100 
@<TRIPOS>BOND
     1   25   53 1    
     2    5   41 1    
     3    7   42 1    
     4   22   23 2    
     5   26   54 1    
     6    1   36 1    
     7   15   48 1    
     8    5   40 1    
     9   25   26 ar   
    10   24   25 ar   
    11    8   43 1    
    12    7    8 ar   
    13    6    7 ar   
    14    5    6 1    
    15    4    5 1    
    16   26   27 ar   
    17    8    9 ar   
    18   14   47 1    
    19   22   24 1    
    20   21   22 1    
    21    6   17 ar   
    22    1   37 1    
    23    1   35 1    
    24    2    1 1    
    25   15   14 ar   
    26   10   15 ar   
    27   24   31 ar   
    28   21   52 1    
    29   18    4 ar   
    30    4    3 ar   
    31   14   13 ar   
    32    9   10 1    
    33   16    9 ar   
    34    2   38 1    
    35   19   18 ar   
    36   21   51 1    
    37   20   21 1    
    38   17   16 ar   
    39   17   50 1    
    40   27   28 1    
    41   30   27 ar   
    42    3    2 1    
    43    2   39 1    
    44   10   11 ar   
    45   28   29 1    
    46    3   33 ar   
    47   16   49 1    
    48   31   30 ar   
    49   31   59 1    
    50   19   20 1    
    51   19   32 ar   
    52   13   46 1    
    53   13   12 ar   
    54   30   58 1    
    55   33   32 ar   
    56   33   34 2    
    57   32   60 1    
    58   11   12 ar   
    59   11   44 1    
    60   29   55 1    
    61   29   56 1    
    62   29   57 1    
    63   12   45 1    
@<TRIPOS>SUBSTRUCTURE
     1 ****       36 TEMP              0 ****  ****    0 ROOT 
