#	Name:			WYP-2009-EJMC-1016-5N
#	Creating user name:	Administrator
#	Creation time:		Sun Jul 05 16:57:09 2020

#	Modifying user name:	Administrator
#	Modification time:	Sun Jul 05 16:57:59 2020

@<TRIPOS>MOLECULE
WYP-2009-EJMC-1016-5N
   46    48     1     0     0
SMALL
MULLIKEN_CHARGES
INVALID_CHARGES
Gaussian 16 #p B3LYP/6-31G* opt
@<TRIPOS>ATOM
      1 C           2.685984   -4.559814   -0.431227 C.3       1 <1>        -0.447600 
      2 C           2.923077   -3.263063    0.365416 C.3       1 <1>        -0.336500 
      3 C           1.865734   -2.215954    0.114254 C.ar      1 <1>         0.051400 
      4 C           1.984793   -1.163772   -0.759670 C.ar      1 <1>         0.232100 
      5 C           3.234435   -0.914759   -1.585838 C.3       1 <1>        -0.421300 
      6 C           4.318099   -0.133213   -0.852244 C.ar      1 <1>         0.176300 
      7 C           4.031324    1.082617   -0.215953 C.ar      1 <1>        -0.170500 
      8 C           5.037486    1.797302    0.431213 C.ar      1 <1>        -0.128600 
      9 C           6.349369    1.318684    0.457744 C.ar      1 <1>        -0.148800 
     10 C           6.627427    0.112415   -0.177649 C.ar      1 <1>         0.085200 
     11 BR          8.416203   -0.568767   -0.159476 Br        1 <1>        -0.129500 
     12 C           5.631868   -0.615240   -0.827750 C.ar      1 <1>        -0.213100 
     13 N           0.988190   -0.220870   -0.962431 N.ar      1 <1>        -0.530600 
     14 C          -0.118394   -0.349533   -0.295098 C.ar      1 <1>         0.344300 
     15 S          -1.469769    0.806843   -0.427340 S.3       1 <1>         0.166400 
     16 C          -0.873381    1.918356   -1.783621 C.3       1 <1>        -0.538300 
     17 C          -1.433313    1.576416   -3.139956 C.ar      1 <1>         0.200100 
     18 C          -2.542555    2.268649   -3.645643 C.ar      1 <1>        -0.190700 
     19 C          -3.065546    1.963919   -4.899154 C.ar      1 <1>        -0.145100 
     20 C          -2.462548    0.954074   -5.644652 C.ar      1 <1>         0.274600 
     21 N          -3.005399    0.626529   -6.972588 N.pl3     1 <1>         0.380700 
     22 O          -2.451656   -0.268131   -7.610902 O.2       1 <1>        -0.392600 
     23 O          -3.980422    1.266925   -7.364989 O.2       1 <1>        -0.393400 
     24 C          -1.357510    0.247443   -5.171748 C.ar      1 <1>        -0.146700 
     25 C          -0.848008    0.564539   -3.917383 C.ar      1 <1>        -0.188500 
     26 N          -0.336213   -1.370704    0.575533 N.ar      1 <1>        -0.653500 
     27 C           0.617793   -2.381110    0.849049 C.ar      1 <1>         0.583000 
     28 O           0.339519   -3.272430    1.639976 O.2       1 <1>        -0.517000 
     29 H           3.460511   -5.299442   -0.199673 H         1 <1>         0.150600 
     30 H           2.704214   -4.376370   -1.512117 H         1 <1>         0.139300 
     31 H           1.714815   -4.993197   -0.173981 H         1 <1>         0.173300 
     32 H           3.915678   -2.859699    0.144850 H         1 <1>         0.146900 
     33 H           2.907991   -3.504285    1.433919 H         1 <1>         0.173900 
     34 H           2.926145   -0.354003   -2.475856 H         1 <1>         0.176600 
     35 H           3.649755   -1.864734   -1.933914 H         1 <1>         0.166800 
     36 H           3.015309    1.465645   -0.229852 H         1 <1>         0.144800 
     37 H           4.804037    2.738430    0.921691 H         1 <1>         0.141900 
     38 H           7.136928    1.869472    0.959895 H         1 <1>         0.155600 
     39 H           5.882700   -1.551408   -1.316596 H         1 <1>         0.150200 
     40 H          -1.169718    2.922524   -1.471122 H         1 <1>         0.198000 
     41 H           0.216058    1.842177   -1.760983 H         1 <1>         0.235000 
     42 H          -3.002024    3.056741   -3.054594 H         1 <1>         0.145900 
     43 H          -3.920493    2.490873   -5.304293 H         1 <1>         0.186900 
     44 H          -0.916746   -0.527581   -5.786537 H         1 <1>         0.186600 
     45 H           0.011418    0.027067   -3.528707 H         1 <1>         0.168100 
     46 H          -1.218337   -1.466654    1.069484 H         1 <1>         0.357700 
@<TRIPOS>BOND
     1    1   29 1    
     2    1   30 1    
     3    1   31 1    
     4    2    1 1    
     5   21   22 2    
     6   24   44 1    
     7    5   35 1    
     8    2   32 1    
     9    2   33 1    
    10    3    2 1    
    11   12   39 1    
    12   21   23 2    
    13   20   21 1    
    14   24   20 ar   
    15   25   24 ar   
    16    5   34 1    
    17    4    5 1    
    18    5    6 1    
    19    4    3 ar   
    20   27    3 ar   
    21   27   28 2    
    22   19   20 ar   
    23   25   45 1    
    24   10   11 1    
    25    6   12 ar   
    26   12   10 ar   
    27   13    4 ar   
    28   26   27 ar   
    29   17   25 ar   
    30    6    7 ar   
    31   10    9 ar   
    32   14   13 ar   
    33   26   46 1    
    34   14   26 ar   
    35   19   43 1    
    36   18   19 ar   
    37   15   14 1    
    38   17   18 ar   
    39   16   17 1    
    40    7   36 1    
    41    7    8 ar   
    42   18   42 1    
    43    8    9 ar   
    44    9   38 1    
    45   16   41 1    
    46   15   16 1    
    47   16   40 1    
    48    8   37 1    
@<TRIPOS>SUBSTRUCTURE
     1 ****       39 TEMP              0 ****  ****    0 ROOT 
