#	Name:			WYP-2008-BMC-3887-5L
#	Creating user name:	Administrator
#	Creation time:		Sun Jul 05 16:57:02 2020

#	Modifying user name:	Administrator
#	Modification time:	Sun Jul 05 16:57:59 2020

@<TRIPOS>MOLECULE
WYP-2008-BMC-3887-5L
   50    52     1     0     0
SMALL
MULLIKEN_CHARGES
INVALID_CHARGES
Gaussian 16 #p B3LYP/6-31G* opt
@<TRIPOS>ATOM
      1 C           3.726826   -3.058750    1.591055 C.3       1 <1>        -0.446700 
      2 C           2.896103   -3.301334    0.317153 C.3       1 <1>        -0.335600 
      3 C           1.850003   -2.238555    0.084062 C.ar      1 <1>         0.047800 
      4 C           1.988773   -1.159492   -0.753171 C.ar      1 <1>         0.234100 
      5 C           3.238913   -0.907152   -1.578246 C.3       1 <1>        -0.422200 
      6 C           3.243064   -1.619483   -2.924848 C.ar      1 <1>         0.181500 
      7 C           2.190816   -1.449403   -3.835777 C.ar      1 <1>        -0.176900 
      8 C           2.201868   -2.085603   -5.075643 C.ar      1 <1>        -0.144900 
      9 C           3.280108   -2.903032   -5.412122 C.ar      1 <1>         0.081600 
     10 BR          3.302962   -3.779147   -7.112681 Br        1 <1>        -0.130900 
     11 C           4.339811   -3.089446   -4.529749 C.ar      1 <1>        -0.145900 
     12 C           4.311581   -2.445468   -3.291175 C.ar      1 <1>        -0.193100 
     13 N           0.999995   -0.206765   -0.941838 N.ar      1 <1>        -0.530200 
     14 C          -0.114672   -0.342161   -0.287778 C.ar      1 <1>         0.343600 
     15 S          -1.479112    0.792187   -0.442483 S.3       1 <1>         0.181400 
     16 C          -0.833957    2.007609   -1.667079 C.3       1 <1>        -0.538500 
     17 C          -0.916590    3.438110   -1.117645 C.2       1 <1>         0.398600 
     18 O          -1.863071    4.131261   -1.464352 O.2       1 <1>        -0.457200 
     19 C           0.129379    3.945202   -0.195328 C.ar      1 <1>         0.077800 
     20 C           1.261548    3.207233    0.176269 C.ar      1 <1>        -0.194400 
     21 C           2.217948    3.741069    1.039039 C.ar      1 <1>        -0.208100 
     22 C           2.048929    5.037250    1.545368 C.ar      1 <1>         0.389500 
     23 O           2.913401    5.654650    2.389695 O.3       1 <1>        -0.497500 
     24 C           4.077210    4.953052    2.808482 C.3       1 <1>        -0.220600 
     25 C           0.917153    5.788878    1.178190 C.ar      1 <1>        -0.172600 
     26 C          -0.023125    5.248041    0.322510 C.ar      1 <1>        -0.160900 
     27 N          -0.334501   -1.367713    0.577914 N.ar      1 <1>        -0.654500 
     28 C           0.615564   -2.382287    0.845483 C.ar      1 <1>         0.583500 
     29 O           0.345605   -3.262746    1.652084 O.2       1 <1>        -0.518900 
     30 H           4.277379   -2.111765    1.537128 H         1 <1>         0.136200 
     31 H           4.453597   -3.865899    1.736453 H         1 <1>         0.148400 
     32 H           3.075500   -3.026162    2.469575 H         1 <1>         0.173300 
     33 H           3.553212   -3.383561   -0.553614 H         1 <1>         0.144000 
     34 H           2.379693   -4.262261    0.417622 H         1 <1>         0.174100 
     35 H           3.304848    0.175203   -1.739236 H         1 <1>         0.174900 
     36 H           4.127781   -1.202321   -1.013252 H         1 <1>         0.161700 
     37 H           1.351814   -0.812058   -3.571723 H         1 <1>         0.151700 
     38 H           1.383671   -1.947996   -5.774238 H         1 <1>         0.156200 
     39 H           5.173738   -3.727087   -4.802496 H         1 <1>         0.155500 
     40 H           5.142656   -2.588306   -2.604418 H         1 <1>         0.135500 
     41 H           0.177229    1.679651   -1.919915 H         1 <1>         0.234100 
     42 H          -1.477315    1.955945   -2.546388 H         1 <1>         0.213400 
     43 H           1.413793    2.200702   -0.201614 H         1 <1>         0.164400 
     44 H           3.082188    3.145371    1.308566 H         1 <1>         0.137100 
     45 H           3.818153    4.037615    3.354988 H         1 <1>         0.159300 
     46 H           4.720159    4.698863    1.956235 H         1 <1>         0.157900 
     47 H           4.610538    5.633584    3.473865 H         1 <1>         0.177900 
     48 H           0.808282    6.790260    1.582488 H         1 <1>         0.148500 
     49 H          -0.899539    5.817186    0.030719 H         1 <1>         0.167700 
     50 H          -1.207872   -1.449558    1.089871 H         1 <1>         0.358300 
@<TRIPOS>BOND
     1   27   50 1    
     2   14   15 1    
     3   15   16 1    
     4   16   42 1    
     5   14   27 ar   
     6   28   27 ar   
     7   28   29 2    
     8   17   18 2    
     9   13   14 ar   
    10   16   17 1    
    11   16   41 1    
    12    3   28 ar   
    13   17   19 1    
    14    8   38 1    
    15   26   49 1    
    16    4   13 ar   
    17    2   34 1    
    18    7   37 1    
    19    4    3 ar   
    20    3    2 1    
    21   19   26 ar   
    22   19   20 ar   
    23    7    8 ar   
    24    8    9 ar   
    25   26   25 ar   
    26    5    4 1    
    27    6    7 ar   
    28    2   33 1    
    29    2    1 1    
    30   20   43 1    
    31    1   32 1    
    32    9   10 1    
    33   20   21 ar   
    34    9   11 ar   
    35   25   48 1    
    36   25   22 ar   
    37    6    5 1    
    38    6   12 ar   
    39    1   31 1    
    40    1   30 1    
    41    5   35 1    
    42    5   36 1    
    43   21   22 ar   
    44   21   44 1    
    45   11   12 ar   
    46   11   39 1    
    47   12   40 1    
    48   22   23 1    
    49   23   24 1    
    50   24   45 1    
    51   24   46 1    
    52   24   47 1    
@<TRIPOS>SUBSTRUCTURE
     1 ****       38 TEMP              0 ****  ****    0 ROOT 
