#	Name:			WYP-2009-EJMC-1016-5C
#	Creating user name:	Administrator
#	Creation time:		Sun Jul 05 16:57:07 2020

#	Modifying user name:	Administrator
#	Modification time:	Sun Jul 05 16:57:59 2020

@<TRIPOS>MOLECULE
WYP-2009-EJMC-1016-5C
   45    47     1     0     0
SMALL
MULLIKEN_CHARGES
INVALID_CHARGES
Gaussian 16 #p B3LYP/6-31G* opt
@<TRIPOS>ATOM
      1 C          -6.728746   -4.302073    0.387606 C.3       1 <1>        -0.219200 
      2 O          -5.898645   -3.855523    1.450051 O.3       1 <1>        -0.501900 
      3 C          -5.114362   -2.762318    1.245275 C.ar      1 <1>         0.380500 
      4 C          -5.071147   -2.021681    0.054972 C.ar      1 <1>        -0.192400 
      5 C          -4.225489   -0.917794   -0.043965 C.ar      1 <1>        -0.171100 
      6 C          -3.412562   -0.522247    1.024226 C.ar      1 <1>         0.136600 
      7 C          -2.529849    0.703590    0.945656 C.3       1 <1>        -0.546300 
      8 S          -1.409978    0.859824   -0.522224 S.3       1 <1>         0.188300 
      9 C          -0.145293   -0.362078   -0.247986 C.ar      1 <1>         0.326600 
     10 N           0.951496   -0.205583   -0.929862 N.ar      1 <1>        -0.512100 
     11 C           1.946068   -1.146934   -0.768274 C.ar      1 <1>         0.229600 
     12 C           3.178254   -0.881976   -1.613080 C.3       1 <1>        -0.410700 
     13 C           4.181082    0.042969   -0.934398 C.ar      1 <1>         0.163300 
     14 C           5.482758   -0.388781   -0.655788 C.ar      1 <1>        -0.184600 
     15 C           6.400838    0.464652   -0.040185 C.ar      1 <1>        -0.129800 
     16 C           6.035599    1.763855    0.308721 C.ar      1 <1>        -0.147800 
     17 C           4.737069    2.186337    0.026526 C.ar      1 <1>         0.084200 
     18 BR          4.218021    3.971247    0.494327 Br        1 <1>        -0.137500 
     19 C           3.810120    1.350471   -0.586782 C.ar      1 <1>        -0.196800 
     20 C           1.861890   -2.211398    0.097830 C.ar      1 <1>         0.064900 
     21 C           2.958359   -3.222329    0.312623 C.3       1 <1>        -0.548400 
     22 C           0.633888   -2.398898    0.856189 C.ar      1 <1>         0.566200 
     23 O           0.375694   -3.300552    1.645088 O.2       1 <1>        -0.527100 
     24 N          -0.342110   -1.401911    0.603512 N.ar      1 <1>        -0.649800 
     25 C          -3.467751   -1.276145    2.208844 C.ar      1 <1>        -0.201300 
     26 C          -4.303397   -2.381520    2.322756 C.ar      1 <1>        -0.158700 
     27 H          -6.137881   -4.584902   -0.493163 H         1 <1>         0.157400 
     28 H          -7.252134   -5.180593    0.768235 H         1 <1>         0.176100 
     29 H          -7.463251   -3.537952    0.101593 H         1 <1>         0.154600 
     30 H          -5.684449   -2.297151   -0.795249 H         1 <1>         0.140800 
     31 H          -4.192945   -0.360964   -0.976842 H         1 <1>         0.148500 
     32 H          -1.928829    0.813416    1.853380 H         1 <1>         0.196200 
     33 H          -3.131066    1.615981    0.855436 H         1 <1>         0.206900 
     34 H           3.672595   -1.824545   -1.865100 H         1 <1>         0.155300 
     35 H           2.837874   -0.425492   -2.549284 H         1 <1>         0.179800 
     36 H           5.783226   -1.397314   -0.928354 H         1 <1>         0.130700 
     37 H           7.408774    0.117173    0.169634 H         1 <1>         0.139000 
     38 H           6.739775    2.435804    0.786511 H         1 <1>         0.151600 
     39 H           2.804138    1.700186   -0.791799 H         1 <1>         0.179000 
     40 H           3.901677   -2.742060    0.596407 H         1 <1>         0.164500 
     41 H           3.149239   -3.817493   -0.590156 H         1 <1>         0.158900 
     42 H           2.663272   -3.907942    1.109631 H         1 <1>         0.194600 
     43 H          -1.239662   -1.559123    1.053947 H         1 <1>         0.366200 
     44 H          -2.852149   -0.990617    3.059516 H         1 <1>         0.143300 
     45 H          -4.340219   -2.966891    3.235692 H         1 <1>         0.152300 
@<TRIPOS>BOND
     1   26   45 1    
     2   25   44 1    
     3   25   26 ar   
     4   26    3 ar   
     5    6   25 ar   
     6   22   23 2    
     7   21   42 1    
     8    7   32 1    
     9   16   38 1    
    10   21   40 1    
    11   15   37 1    
    12   22   24 ar   
    13   20   22 ar   
    14   24   43 1    
    15   15   16 ar   
    16   17   16 ar   
    17    3    2 1    
    18    2    1 1    
    19   17   18 1    
    20   20   21 1    
    21   21   41 1    
    22    4    3 ar   
    23   14   15 ar   
    24    7    6 1    
    25    6    5 ar   
    26    9   24 ar   
    27    7   33 1    
    28    8    7 1    
    29   19   17 ar   
    30   11   20 ar   
    31    1   28 1    
    32   14   36 1    
    33   13   14 ar   
    34   13   19 ar   
    35   19   39 1    
    36    1   29 1    
    37    1   27 1    
    38    9    8 1    
    39   10    9 ar   
    40   12   13 1    
    41    5    4 ar   
    42    4   30 1    
    43   11   10 ar   
    44   11   12 1    
    45    5   31 1    
    46   12   34 1    
    47   12   35 1    
@<TRIPOS>SUBSTRUCTURE
     1 ****       42 TEMP              0 ****  ****    0 ROOT 
