#	Name:			WYP-2008-BMC-3887-5M
#	Creating user name:	Administrator
#	Creation time:		Sun Jul 05 16:57:02 2020

#	Modifying user name:	Administrator
#	Modification time:	Sun Jul 05 16:57:59 2020

@<TRIPOS>MOLECULE
WYP-2008-BMC-3887-5M
   60    63     1     0     0
SMALL
MULLIKEN_CHARGES
INVALID_CHARGES
Gaussian 16 #p B3LYP/6-31G* opt
@<TRIPOS>ATOM
      1 C           2.559282   -4.618775   -0.425475 C.3       1 <1>        -0.451100 
      2 C           2.884061   -3.312191    0.323688 C.3       1 <1>        -0.326900 
      3 C           1.857725   -2.229089    0.095083 C.ar      1 <1>         0.043300 
      4 C           1.986246   -1.161342   -0.761855 C.ar      1 <1>         0.241800 
      5 C           3.206985   -0.906527   -1.627078 C.3       1 <1>        -0.420500 
      6 C           3.115429   -1.555812   -3.003162 C.ar      1 <1>         0.174800 
      7 C           2.106705   -1.196016   -3.908756 C.ar      1 <1>        -0.199000 
      8 C           2.037944   -1.790582   -5.165708 C.ar      1 <1>        -0.184300 
      9 C           2.970153   -2.761862   -5.570068 C.ar      1 <1>         0.090300 
     10 C           2.893665   -3.390345   -6.913343 C.ar      1 <1>         0.090200 
     11 C           3.199564   -4.750084   -7.095072 C.ar      1 <1>        -0.174500 
     12 C           3.130403   -5.339616   -8.356542 C.ar      1 <1>        -0.133900 
     13 C           2.751329   -4.583243   -9.466930 C.ar      1 <1>        -0.127700 
     14 C           2.442732   -3.231539   -9.302652 C.ar      1 <1>        -0.134100 
     15 C           2.513942   -2.642467   -8.041181 C.ar      1 <1>        -0.174000 
     16 C           3.978171   -3.115054   -4.659633 C.ar      1 <1>        -0.176400 
     17 C           4.046674   -2.522488   -3.399305 C.ar      1 <1>        -0.196100 
     18 N           0.994021   -0.210489   -0.939768 N.ar      1 <1>        -0.507100 
     19 C          -0.116108   -0.351845   -0.292991 C.ar      1 <1>         0.343000 
     20 S          -1.472841    0.805021   -0.438707 S.3       1 <1>         0.156600 
     21 C          -0.894254    1.844188   -1.844274 C.3       1 <1>        -0.549300 
     22 C          -1.523766    1.421457   -3.174448 C.2       1 <1>         0.420400 
     23 O          -0.848699    0.789325   -3.976179 O.2       1 <1>        -0.451100 
     24 C          -2.932861    1.790981   -3.467422 C.ar      1 <1>         0.082600 
     25 C          -3.741055    2.544046   -2.593995 C.ar      1 <1>        -0.181900 
     26 C          -5.048276    2.860579   -2.927131 C.ar      1 <1>        -0.178000 
     27 C          -5.587336    2.430990   -4.151484 C.ar      1 <1>         0.389400 
     28 O          -6.873619    2.792010   -4.385078 O.3       1 <1>        -0.498300 
     29 C          -7.486327    2.387942   -5.604068 C.3       1 <1>        -0.222300 
     30 C          -4.795917    1.679551   -5.035282 C.ar      1 <1>        -0.193800 
     31 C          -3.486928    1.369824   -4.686065 C.ar      1 <1>        -0.165700 
     32 N          -0.340247   -1.375033    0.574320 N.ar      1 <1>        -0.654500 
     33 C           0.617307   -2.379998    0.847622 C.ar      1 <1>         0.582300 
     34 O           0.345552   -3.264756    1.650568 O.2       1 <1>        -0.525100 
     35 H           1.583719   -5.003261   -0.113592 H         1 <1>         0.170300 
     36 H           2.543104   -4.459889   -1.508624 H         1 <1>         0.156500 
     37 H           3.312281   -5.383374   -0.202002 H         1 <1>         0.140100 
     38 H           3.880138   -2.962312    0.035829 H         1 <1>         0.134100 
     39 H           2.914039   -3.525451    1.398389 H         1 <1>         0.165500 
     40 H           4.112547   -1.255893   -1.123785 H         1 <1>         0.156300 
     41 H           3.295189    0.179867   -1.739907 H         1 <1>         0.171300 
     42 H           1.359236   -0.457817   -3.632342 H         1 <1>         0.181000 
     43 H           1.229058   -1.510728   -5.834884 H         1 <1>         0.138000 
     44 H           3.468873   -5.355199   -6.233802 H         1 <1>         0.131100 
     45 H           3.364360   -6.395174   -8.470118 H         1 <1>         0.128100 
     46 H           2.696642   -5.042455  -10.450311 H         1 <1>         0.126600 
     47 H           2.154039   -2.630240  -10.161050 H         1 <1>         0.127400 
     48 H           2.296906   -1.583822   -7.929503 H         1 <1>         0.133200 
     49 H           4.733389   -3.840610   -4.949239 H         1 <1>         0.129300 
     50 H           4.847305   -2.807879   -2.720174 H         1 <1>         0.121900 
     51 H           0.185949    1.699263   -1.905464 H         1 <1>         0.249400 
     52 H          -1.120264    2.879660   -1.579074 H         1 <1>         0.197400 
     53 H          -3.354521    2.890041   -1.640199 H         1 <1>         0.138400 
     54 H          -5.677616    3.439568   -2.259209 H         1 <1>         0.149000 
     55 H          -7.524097    1.294930   -5.689910 H         1 <1>         0.161300 
     56 H          -8.502254    2.784159   -5.570035 H         1 <1>         0.178400 
     57 H          -6.961740    2.804352   -6.472957 H         1 <1>         0.160300 
     58 H          -5.191436    1.337123   -5.984420 H         1 <1>         0.143400 
     59 H          -2.863415    0.789085   -5.357780 H         1 <1>         0.169100 
     60 H          -1.225390   -1.477900    1.060932 H         1 <1>         0.353300 
@<TRIPOS>BOND
     1    5   41 1    
     2   21   52 1    
     3   21   51 1    
     4    5   40 1    
     5    5    6 1    
     6    4    5 1    
     7   22   21 1    
     8   21   20 1    
     9    6    7 ar   
    10    6   17 ar   
    11   15   48 1    
    12   17   50 1    
    13    7   42 1    
    14    7    8 ar   
    15   17   16 ar   
    16   22   23 2    
    17   24   22 1    
    18   25   53 1    
    19   18    4 ar   
    20   19   18 ar   
    21    4    3 ar   
    22    8   43 1    
    23    8    9 ar   
    24   16   49 1    
    25   16    9 ar   
    26   25   24 ar   
    27   26   25 ar   
    28   31   24 ar   
    29   14   47 1    
    30   15   14 ar   
    31   10   15 ar   
    32    9   10 1    
    33   20   19 1    
    34    2   38 1    
    35   26   54 1    
    36   27   26 ar   
    37   19   32 ar   
    38   14   13 ar   
    39   10   11 ar   
    40   31   59 1    
    41   30   31 ar   
    42    3    2 1    
    43    3   33 ar   
    44   27   30 ar   
    45   28   27 1    
    46   30   58 1    
    47    2   39 1    
    48    2    1 1    
    49   29   57 1    
    50   13   46 1    
    51   13   12 ar   
    52   28   29 1    
    53   11   12 ar   
    54   11   44 1    
    55   32   33 ar   
    56   32   60 1    
    57   33   34 2    
    58   12   45 1    
    59   29   56 1    
    60   29   55 1    
    61    1   36 1    
    62    1   37 1    
    63    1   35 1    
@<TRIPOS>SUBSTRUCTURE
     1 ****       53 TEMP              0 ****  ****    0 ROOT 
