#	Name:			WYP-2009-EJMC-1016-5G
#	Creating user name:	Administrator
#	Creation time:		Sun Jul 05 16:57:08 2020

#	Modifying user name:	Administrator
#	Modification time:	Sun Jul 05 16:57:59 2020

@<TRIPOS>MOLECULE
WYP-2009-EJMC-1016-5G
   51    53     1     0     0
SMALL
MULLIKEN_CHARGES
INVALID_CHARGES
Gaussian 16 #p B3LYP/6-31G* opt
@<TRIPOS>ATOM
      1 C          -4.904192    6.984061   -2.519168 C.3       1 <1>        -0.217400 
      2 O          -4.777795    5.731334   -3.174539 O.3       1 <1>        -0.504000 
      3 C          -3.793410    4.882748   -2.763934 C.ar      1 <1>         0.378600 
      4 C          -3.721836    3.658238   -3.446590 C.ar      1 <1>        -0.171200 
      5 C          -2.752516    2.726449   -3.104867 C.ar      1 <1>        -0.166600 
      6 C          -1.825678    2.984087   -2.081073 C.ar      1 <1>         0.139000 
      7 C          -0.774827    1.970946   -1.716549 C.3       1 <1>        -0.491400 
      8 S          -1.465518    0.801383   -0.449344 S.3       1 <1>         0.149500 
      9 C          -0.117039   -0.344237   -0.283380 C.ar      1 <1>         0.325500 
     10 N           0.988938   -0.208772   -0.953582 N.ar      1 <1>        -0.523300 
     11 C           1.977041   -1.157771   -0.759694 C.ar      1 <1>         0.239700 
     12 C           3.232886   -0.915662   -1.575662 C.3       1 <1>        -0.411300 
     13 C           4.304932   -0.132888   -0.825992 C.ar      1 <1>         0.184200 
     14 C           5.581151   -0.668120   -0.645557 C.ar      1 <1>        -0.253200 
     15 C           6.585143    0.047779    0.024911 C.ar      1 <1>         0.188000 
     16 C           7.956858   -0.557252    0.218736 C.3       1 <1>        -0.530400 
     17 C           6.281385    1.319395    0.512534 C.ar      1 <1>        -0.238200 
     18 C           5.007233    1.884371    0.348774 C.ar      1 <1>         0.190500 
     19 C           4.703606    3.258229    0.901549 C.3       1 <1>        -0.529600 
     20 C           4.030880    1.148037   -0.323627 C.ar      1 <1>        -0.242900 
     21 C           1.857372   -2.223338    0.099756 C.ar      1 <1>         0.063900 
     22 C           2.932338   -3.254545    0.323599 C.3       1 <1>        -0.548700 
     23 C           0.619691   -2.386551    0.849963 C.ar      1 <1>         0.570200 
     24 O           0.341026   -3.276265    1.645336 O.2       1 <1>        -0.527900 
     25 N          -0.329855   -1.371978    0.585218 N.ar      1 <1>        -0.648500 
     26 C          -1.911347    4.205949   -1.408514 C.ar      1 <1>        -0.174900 
     27 C          -2.880476    5.156106   -1.738520 C.ar      1 <1>        -0.194000 
     28 H          -3.999094    7.594284   -2.637412 H         1 <1>         0.153900 
     29 H          -5.118643    6.859762   -1.449633 H         1 <1>         0.154800 
     30 H          -5.744333    7.488761   -2.999189 H         1 <1>         0.173200 
     31 H          -4.435898    3.465069   -4.240843 H         1 <1>         0.143700 
     32 H          -2.709282    1.781679   -3.641634 H         1 <1>         0.137500 
     33 H          -0.460528    1.367865   -2.570244 H         1 <1>         0.205100 
     34 H           0.112967    2.435373   -1.283622 H         1 <1>         0.200600 
     35 H           2.933923   -0.362102   -2.472882 H         1 <1>         0.170100 
     36 H           3.651944   -1.872046   -1.904354 H         1 <1>         0.153500 
     37 H           5.806968   -1.656890   -1.041510 H         1 <1>         0.114900 
     38 H           8.355578   -0.957856   -0.720898 H         1 <1>         0.158800 
     39 H           8.669798    0.181555    0.598376 H         1 <1>         0.154300 
     40 H           7.929127   -1.388382    0.935480 H         1 <1>         0.164100 
     41 H           7.052312    1.888024    1.030073 H         1 <1>         0.112000 
     42 H           3.746949    3.636950    0.527841 H         1 <1>         0.151800 
     43 H           5.481826    3.981585    0.630271 H         1 <1>         0.157900 
     44 H           4.647253    3.243508    1.997917 H         1 <1>         0.163900 
     45 H           3.038934    1.570069   -0.464952 H         1 <1>         0.132400 
     46 H           3.883056   -2.790859    0.608622 H         1 <1>         0.168900 
     47 H           3.115753   -3.853645   -0.578390 H         1 <1>         0.157100 
     48 H           2.619795   -3.933484    1.119649 H         1 <1>         0.192800 
     49 H          -1.205614   -1.462470    1.090337 H         1 <1>         0.352400 
     50 H          -1.206936    4.428818   -0.610471 H         1 <1>         0.134700 
     51 H          -2.911250    6.094579   -1.197180 H         1 <1>         0.135900 
@<TRIPOS>BOND
     1   19   44 1    
     2    1   29 1    
     3   19   42 1    
     4   19   43 1    
     5   18   19 1    
     6   25   49 1    
     7   23   24 2    
     8   27   51 1    
     9   26   50 1    
    10   17   41 1    
    11   23   25 ar   
    12    9   25 ar   
    13   21   23 ar   
    14   18   17 ar   
    15   20   18 ar   
    16   26   27 ar   
    17   27    3 ar   
    18    9    8 1    
    19    8    7 1    
    20    1   28 1    
    21    1   30 1    
    22    2    1 1    
    23    6   26 ar   
    24   15   17 ar   
    25   22   48 1    
    26   10    9 ar   
    27   20   45 1    
    28   16   40 1    
    29   13   20 ar   
    30   16   39 1    
    31   22   46 1    
    32    7   34 1    
    33   21   22 1    
    34   11   21 ar   
    35   22   47 1    
    36   15   16 1    
    37   14   15 ar   
    38    3    2 1    
    39    3    4 ar   
    40    7    6 1    
    41    6    5 ar   
    42   16   38 1    
    43    7   33 1    
    44   11   10 ar   
    45   12   11 1    
    46   13   14 ar   
    47   13   12 1    
    48   14   37 1    
    49    4    5 ar   
    50    4   31 1    
    51    5   32 1    
    52   12   36 1    
    53   12   35 1    
@<TRIPOS>SUBSTRUCTURE
     1 ****       44 TEMP              0 ****  ****    0 ROOT 
