#	Name:			WYP-2009-EJMC-1016-5B
#	Creating user name:	Administrator
#	Creation time:		Sun Jul 05 16:57:07 2020

#	Modifying user name:	Administrator
#	Modification time:	Sun Jul 05 16:57:59 2020

@<TRIPOS>MOLECULE
WYP-2009-EJMC-1016-5B
   43    45     1     0     0
SMALL
MULLIKEN_CHARGES
INVALID_CHARGES
Gaussian 16 #p B3LYP/6-31G* opt
@<TRIPOS>ATOM
      1 C           2.909794   -3.288300    0.313577 C.3       1 <1>        -0.548500 
      2 C           1.853985   -2.234239    0.086801 C.ar      1 <1>         0.042700 
      3 C           1.978235   -1.160563   -0.760286 C.ar      1 <1>         0.257200 
      4 C           3.210817   -0.925812   -1.615146 C.3       1 <1>        -0.424900 
      5 C           2.886751   -0.931167   -3.098650 C.ar      1 <1>         0.164800 
      6 C           2.742196   -2.157697   -3.766011 C.ar      1 <1>        -0.181200 
      7 C           2.429504   -2.227619   -5.121111 C.ar      1 <1>        -0.119300 
      8 C           2.252341   -1.052530   -5.852534 C.ar      1 <1>        -0.129800 
      9 C           2.390540    0.181742   -5.221105 C.ar      1 <1>        -0.146900 
     10 C           2.702031    0.227660   -3.862224 C.ar      1 <1>         0.026900 
     11 BR          2.891032    1.970220   -3.074297 Br        1 <1>        -0.127300 
     12 N           0.996044   -0.204814   -0.942078 N.ar      1 <1>        -0.512800 
     13 C          -0.105717   -0.334324   -0.273005 C.ar      1 <1>         0.338300 
     14 S          -1.480610    0.785412   -0.460732 S.3       1 <1>         0.155800 
     15 C          -0.661414    2.247193   -1.251708 C.3       1 <1>        -0.549600 
     16 C          -0.161047    3.257633   -0.251607 C.ar      1 <1>         0.201800 
     17 C           1.192479    3.280612    0.116088 C.ar      1 <1>        -0.196100 
     18 C           1.662003    4.207267    1.043210 C.ar      1 <1>        -0.149100 
     19 C           0.762102    5.112106    1.601366 C.ar      1 <1>         0.274500 
     20 N           1.251060    6.095507    2.579934 N.pl3     1 <1>         0.379700 
     21 O           0.434538    6.886542    3.052273 O.2       1 <1>        -0.394900 
     22 O           2.447321    6.069207    2.868708 O.2       1 <1>        -0.394200 
     23 C          -0.588095    5.118213    1.254102 C.ar      1 <1>        -0.147200 
     24 C          -1.040070    4.186721    0.326089 C.ar      1 <1>        -0.182200 
     25 N          -0.324996   -1.360605    0.594378 N.ar      1 <1>        -0.650200 
     26 C           0.615923   -2.385573    0.846258 C.ar      1 <1>         0.577000 
     27 O           0.338791   -3.272824    1.642937 O.2       1 <1>        -0.519900 
     28 H           3.849340   -2.856901    0.678253 H         1 <1>         0.165300 
     29 H           2.547978   -3.997076    1.060978 H         1 <1>         0.200800 
     30 H           3.137276   -3.849187   -0.601161 H         1 <1>         0.160700 
     31 H           3.646780    0.039865   -1.339704 H         1 <1>         0.185000 
     32 H           3.960222   -1.692914   -1.408309 H         1 <1>         0.166400 
     33 H           2.879745   -3.075157   -3.198857 H         1 <1>         0.141400 
     34 H           2.327296   -3.195189   -5.603843 H         1 <1>         0.141000 
     35 H           2.010657   -1.090495   -6.910861 H         1 <1>         0.143300 
     36 H           2.261004    1.105834   -5.773664 H         1 <1>         0.155800 
     37 H           0.144425    1.858586   -1.877972 H         1 <1>         0.253500 
     38 H          -1.438924    2.670452   -1.893502 H         1 <1>         0.197700 
     39 H           1.880074    2.578983   -0.343931 H         1 <1>         0.173000 
     40 H           2.704425    4.241994    1.335030 H         1 <1>         0.184900 
     41 H          -1.253562    5.842736    1.706730 H         1 <1>         0.184800 
     42 H          -2.090711    4.180491    0.047137 H         1 <1>         0.144600 
     43 H          -1.183505   -1.421445    1.132767 H         1 <1>         0.357100 
@<TRIPOS>BOND
     1   15   38 1    
     2   24   42 1    
     3   14   15 1    
     4   13   14 1    
     5   15   37 1    
     6   15   16 1    
     7   16   24 ar   
     8   24   23 ar   
     9    8   35 1    
    10   23   41 1    
    11   25   43 1    
    12    9   36 1    
    13   16   17 ar   
    14    9    8 ar   
    15    7    8 ar   
    16   23   19 ar   
    17   13   25 ar   
    18   12   13 ar   
    19    7   34 1    
    20   10    9 ar   
    21   26   25 ar   
    22    6    7 ar   
    23    3   12 ar   
    24   10   11 1    
    25    5   10 ar   
    26   17   39 1    
    27   17   18 ar   
    28    5    6 ar   
    29    6   33 1    
    30   26   27 2    
    31    2   26 ar   
    32   18   19 ar   
    33   19   20 1    
    34   20   21 2    
    35    4    5 1    
    36    3    2 ar   
    37    3    4 1    
    38   18   40 1    
    39    2    1 1    
    40   20   22 2    
    41    4   31 1    
    42    4   32 1    
    43    1   30 1    
    44    1   29 1    
    45    1   28 1    
@<TRIPOS>SUBSTRUCTURE
     1 ****       42 TEMP              0 ****  ****    0 ROOT 
