#	Name:			WYP-2008-BMC-3887-5F
#	Creating user name:	Administrator
#	Creation time:		Sun Jul 05 16:57:01 2020

#	Modifying user name:	Administrator
#	Modification time:	Sun Jul 05 16:57:59 2020

@<TRIPOS>MOLECULE
WYP-2008-BMC-3887-5F
   53    55     1     0     0
SMALL
MULLIKEN_CHARGES
INVALID_CHARGES
Gaussian 16 #p B3LYP/6-31G* opt
@<TRIPOS>ATOM
      1 C           0.617630    4.720772   -8.277063 C.3       1 <1>        -0.221900 
      2 O           0.117586    3.393004   -8.174011 O.3       1 <1>        -0.497200 
      3 C          -0.151254    2.891502   -6.942957 C.ar      1 <1>         0.389500 
      4 C          -0.642316    1.572885   -6.917176 C.ar      1 <1>        -0.172900 
      5 C          -0.946105    0.970500   -5.710986 C.ar      1 <1>        -0.161100 
      6 C          -0.773713    1.657125   -4.491810 C.ar      1 <1>         0.082900 
      7 C          -1.123322    0.945578   -3.232448 C.2       1 <1>         0.425800 
      8 O          -1.532116   -0.202377   -3.237007 O.2       1 <1>        -0.448300 
      9 C          -0.941924    1.722832   -1.915830 C.3       1 <1>        -0.542700 
     10 S          -1.458880    0.809197   -0.431313 S.3       1 <1>         0.184100 
     11 C          -0.121634   -0.353378   -0.296215 C.ar      1 <1>         0.354300 
     12 N           0.989767   -0.210085   -0.954275 N.ar      1 <1>        -0.527300 
     13 C           1.973936   -1.160984   -0.760901 C.ar      1 <1>         0.239800 
     14 C           3.222956   -0.925266   -1.590502 C.3       1 <1>        -0.414600 
     15 C           4.245855   -0.029978   -0.904953 C.ar      1 <1>         0.161200 
     16 C           3.902338    1.266314   -0.499415 C.ar      1 <1>        -0.197900 
     17 C           4.843636    2.091443    0.114463 C.ar      1 <1>        -0.012300 
     18 C           4.433127    3.459231    0.594306 C.3       1 <1>         0.791400 
     19 F           5.475814    4.317513    0.618952 F         1 <1>        -0.268200 
     20 F           3.926351    3.416433    1.847183 F         1 <1>        -0.256600 
     21 F           3.479008    4.001076   -0.196583 F         1 <1>        -0.272400 
     22 C           6.147129    1.642451    0.335233 C.ar      1 <1>        -0.197000 
     23 C           6.494289    0.354932   -0.066350 C.ar      1 <1>        -0.011600 
     24 C           7.910443   -0.130684    0.100860 C.3       1 <1>         0.791400 
     25 F           8.638505    0.070532   -1.021955 F         1 <1>        -0.259000 
     26 F           7.955049   -1.455552    0.363782 F         1 <1>        -0.268500 
     27 F           8.547410    0.507309    1.105349 F         1 <1>        -0.266900 
     28 C           5.551076   -0.475012   -0.679807 C.ar      1 <1>        -0.215200 
     29 C           1.862894   -2.217580    0.108314 C.ar      1 <1>         0.063700 
     30 C           2.939222   -3.245299    0.343573 C.3       1 <1>        -0.549800 
     31 C           0.619763   -2.383221    0.852416 C.ar      1 <1>         0.576400 
     32 O           0.343499   -3.270159    1.649423 O.2       1 <1>        -0.520200 
     33 N          -0.337689   -1.381321    0.566825 N.ar      1 <1>        -0.651100 
     34 C          -0.283970    2.969794   -4.532243 C.ar      1 <1>        -0.194300 
     35 C           0.028056    3.590471   -5.740964 C.ar      1 <1>        -0.198500 
     36 H           1.580012    4.827267   -7.760999 H         1 <1>         0.159900 
     37 H           0.756421    4.903136   -9.343670 H         1 <1>         0.179500 
     38 H          -0.095881    5.449625   -7.872791 H         1 <1>         0.159400 
     39 H          -0.772662    1.051864   -7.860349 H         1 <1>         0.150900 
     40 H          -1.324784   -0.045638   -5.678386 H         1 <1>         0.169500 
     41 H           0.105248    2.011814   -1.795901 H         1 <1>         0.226700 
     42 H          -1.548506    2.634704   -1.918965 H         1 <1>         0.201600 
     43 H           3.693018   -1.880004   -1.842182 H         1 <1>         0.163200 
     44 H           2.906432   -0.457912   -2.529895 H         1 <1>         0.184300 
     45 H           2.892786    1.626117   -0.666587 H         1 <1>         0.174500 
     46 H           6.877862    2.286106    0.810152 H         1 <1>         0.174800 
     47 H           5.840725   -1.476411   -0.983730 H         1 <1>         0.158000 
     48 H           2.620163   -3.922841    1.138239 H         1 <1>         0.199700 
     49 H           3.886727   -2.782532    0.642313 H         1 <1>         0.163400 
     50 H           3.132870   -3.847050   -0.554022 H         1 <1>         0.163100 
     51 H          -1.233201   -1.498420    1.030445 H         1 <1>         0.357600 
     52 H          -0.132617    3.532162   -3.615853 H         1 <1>         0.137200 
     53 H           0.406398    4.605944   -5.736142 H         1 <1>         0.141700 
@<TRIPOS>BOND
     1   18   20 1    
     2   18   19 1    
     3   18   21 1    
     4   17   18 1    
     5    9   42 1    
     6    9   10 1    
     7   10   11 1    
     8    9   41 1    
     9    7    9 1    
    10   34   52 1    
    11   17   22 ar   
    12   16   17 ar   
    13   22   46 1    
    14   33   51 1    
    15   16   45 1    
    16   35   53 1    
    17   11   33 ar   
    18   11   12 ar   
    19   33   31 ar   
    20   23   22 ar   
    21   35   34 ar   
    22   34    6 ar   
    23   15   16 ar   
    24    1   38 1    
    25    6    7 1    
    26    7    8 2    
    27    3   35 ar   
    28   12   13 ar   
    29    6    5 ar   
    30   31   32 2    
    31   31   29 ar   
    32   24   27 1    
    33    1   36 1    
    34   28   23 ar   
    35   23   24 1    
    36    1   37 1    
    37    2    1 1    
    38   15   28 ar   
    39   14   15 1    
    40   13   29 ar   
    41   13   14 1    
    42   29   30 1    
    43    3    2 1    
    44    3    4 ar   
    45    5    4 ar   
    46    5   40 1    
    47   28   47 1    
    48   24   25 1    
    49   24   26 1    
    50   14   44 1    
    51   14   43 1    
    52   30   49 1    
    53    4   39 1    
    54   30   48 1    
    55   30   50 1    
@<TRIPOS>SUBSTRUCTURE
     1 ****       42 TEMP              0 ****  ****    0 ROOT 
