#	Name:			WYP-2009-EJMC-1016-5Q
#	Creating user name:	Administrator
#	Creation time:		Sun Jul 05 16:57:09 2020

#	Modifying user name:	Administrator
#	Modification time:	Sun Jul 05 16:57:59 2020

@<TRIPOS>MOLECULE
WYP-2009-EJMC-1016-5Q
   54    56     1     0     0
SMALL
MULLIKEN_CHARGES
INVALID_CHARGES
Gaussian 16 #p B3LYP/6-31G* opt
@<TRIPOS>ATOM
      1 C           2.526639   -4.636480   -0.428889 C.3       1 <1>        -0.450300 
      2 C           2.874650   -3.326100    0.302961 C.3       1 <1>        -0.324600 
      3 C           1.850941   -2.238705    0.085171 C.ar      1 <1>         0.045900 
      4 C           1.987706   -1.159903   -0.756702 C.ar      1 <1>         0.239700 
      5 C           3.229333   -0.903362   -1.593319 C.3       1 <1>        -0.424800 
      6 C           3.253756   -1.663834   -2.914214 C.ar      1 <1>         0.191000 
      7 C           4.314965   -2.514488   -3.224251 C.ar      1 <1>        -0.252600 
      8 C           4.364389   -3.204957   -4.445506 C.ar      1 <1>         0.188600 
      9 C           5.523528   -4.123862   -4.757590 C.3       1 <1>        -0.530900 
     10 C           3.321051   -3.023553   -5.353792 C.ar      1 <1>        -0.238700 
     11 C           2.238777   -2.175704   -5.070758 C.ar      1 <1>         0.190700 
     12 C           1.117080   -2.008898   -6.070392 C.3       1 <1>        -0.530500 
     13 C           2.220031   -1.501626   -3.849128 C.ar      1 <1>        -0.244700 
     14 N           0.998378   -0.207373   -0.942209 N.ar      1 <1>        -0.526700 
     15 C          -0.111094   -0.335566   -0.278625 C.ar      1 <1>         0.343200 
     16 S          -1.483468    0.784106   -0.454374 S.3       1 <1>         0.144800 
     17 C          -0.729980    2.146025   -1.477192 C.3       1 <1>        -0.534900 
     18 C          -0.202414    3.306542   -0.681267 C.ar      1 <1>         0.185500 
     19 C           1.109370    3.311074   -0.197079 C.ar      1 <1>        -0.190500 
     20 C           1.609164    4.385164    0.541746 C.ar      1 <1>        -0.193400 
     21 C           0.785637    5.485899    0.808206 C.ar      1 <1>         0.377400 
     22 O           1.165741    6.588786    1.515232 O.3       1 <1>        -0.505200 
     23 C           2.486131    6.633564    2.033255 C.3       1 <1>        -0.216500 
     24 C          -0.532057    5.496000    0.326947 C.ar      1 <1>        -0.169800 
     25 C          -1.012778    4.419389   -0.405536 C.ar      1 <1>        -0.180800 
     26 N          -0.325578   -1.357527    0.594227 N.ar      1 <1>        -0.651500 
     27 C           0.614528   -2.383164    0.842709 C.ar      1 <1>         0.581300 
     28 O           0.340241   -3.269397    1.644077 O.2       1 <1>        -0.526600 
     29 H           1.555693   -5.012334   -0.093622 H         1 <1>         0.170800 
     30 H           3.279883   -5.403752   -0.215270 H         1 <1>         0.138800 
     31 H           2.490201   -4.484856   -1.512462 H         1 <1>         0.155800 
     32 H           2.925513   -3.531707    1.378616 H         1 <1>         0.164000 
     33 H           3.866653   -2.985931   -0.009392 H         1 <1>         0.132400 
     34 H           3.260268    0.173604   -1.793549 H         1 <1>         0.170300 
     35 H           4.128419   -1.150954   -1.021176 H         1 <1>         0.156900 
     36 H           5.125090   -2.642650   -2.508124 H         1 <1>         0.113400 
     37 H           5.448580   -4.531855   -5.770463 H         1 <1>         0.154500 
     38 H           6.483813   -3.599651   -4.677807 H         1 <1>         0.159900 
     39 H           5.561664   -4.970271   -4.060065 H         1 <1>         0.163600 
     40 H           3.347864   -3.551178   -6.305906 H         1 <1>         0.112800 
     41 H           1.501365   -1.760566   -7.067123 H         1 <1>         0.158700 
     42 H           0.533452   -2.933003   -6.172960 H         1 <1>         0.163800 
     43 H           0.427320   -1.214564   -5.768393 H         1 <1>         0.154500 
     44 H           1.391218   -0.838578   -3.613503 H         1 <1>         0.132600 
     45 H           0.048865    1.657150   -2.065565 H         1 <1>         0.226500 
     46 H          -1.541002    2.449911   -2.144185 H         1 <1>         0.188700 
     47 H           1.751138    2.457842   -0.397934 H         1 <1>         0.151700 
     48 H           2.632663    4.354258    0.897767 H         1 <1>         0.134100 
     49 H           3.235929    6.595694    1.231862 H         1 <1>         0.153100 
     50 H           2.568818    7.586505    2.558918 H         1 <1>         0.171700 
     51 H           2.671023    5.813013    2.738854 H         1 <1>         0.154300 
     52 H          -1.155419    6.359070    0.538414 H         1 <1>         0.140800 
     53 H          -2.036593    4.443599   -0.772941 H         1 <1>         0.127300 
     54 H          -1.188648   -1.424983    1.124659 H         1 <1>         0.354000 
@<TRIPOS>BOND
     1   12   42 1    
     2   12   43 1    
     3   17   46 1    
     4   12   41 1    
     5   11   12 1    
     6   25   53 1    
     7   16   17 1    
     8   15   16 1    
     9   17   45 1    
    10   17   18 1    
    11   18   25 ar   
    12   25   24 ar   
    13   26   54 1    
    14   13   11 ar   
    15   11   10 ar   
    16   13   44 1    
    17   24   52 1    
    18   18   19 ar   
    19   10   40 1    
    20   26   15 ar   
    21   14   15 ar   
    22   27   26 ar   
    23   24   21 ar   
    24    6   13 ar   
    25    8   10 ar   
    26    4   14 ar   
    27   27   28 2    
    28    3   27 ar   
    29    1   29 1    
    30   19   47 1    
    31   19   20 ar   
    32    1   31 1    
    33    3    4 ar   
    34    4    5 1    
    35    5    6 1    
    36    6    7 ar   
    37   20   21 ar   
    38   21   22 1    
    39    7    8 ar   
    40    8    9 1    
    41    2    3 1    
    42    1   30 1    
    43    1    2 1    
    44    9   37 1    
    45   20   48 1    
    46    5   34 1    
    47    5   35 1    
    48    7   36 1    
    49   22   23 1    
    50    9   39 1    
    51    9   38 1    
    52    2   32 1    
    53    2   33 1    
    54   23   49 1    
    55   23   50 1    
    56   23   51 1    
@<TRIPOS>SUBSTRUCTURE
     1 ****       29 TEMP              0 ****  ****    0 ROOT 
