#	Name:			WYP-2008-BMC-3887-5P
#	Creating user name:	Administrator
#	Creation time:		Sun Jul 05 16:57:03 2020

#	Modifying user name:	Administrator
#	Modification time:	Sun Jul 05 16:57:59 2020

@<TRIPOS>MOLECULE
WYP-2008-BMC-3887-5P
   52    54     1     0     0
SMALL
MULLIKEN_CHARGES
INVALID_CHARGES
Gaussian 16 #p B3LYP/6-31G* opt
@<TRIPOS>ATOM
      1 C           2.577227   -4.645416   -0.258308 C.3       1 <1>        -0.456200 
      2 C           2.899185   -3.287140    0.392497 C.3       1 <1>        -0.329900 
      3 C           1.863594   -2.224533    0.104178 C.ar      1 <1>         0.030800 
      4 C           1.992456   -1.159520   -0.756241 C.ar      1 <1>         0.250200 
      5 C           3.240604   -0.856479   -1.567277 C.3       1 <1>        -0.423300 
      6 C           3.044397   -1.000893   -3.069781 C.ar      1 <1>         0.190400 
      7 C           2.843975    0.124203   -3.875027 C.ar      1 <1>        -0.247600 
      8 C           2.666486    0.007293   -5.259320 C.ar      1 <1>         0.192500 
      9 C           2.408052    1.228892   -6.110485 C.3       1 <1>        -0.534200 
     10 C           2.704468   -1.269532   -5.829978 C.ar      1 <1>        -0.242400 
     11 C           2.910519   -2.416198   -5.052212 C.ar      1 <1>         0.183700 
     12 C           2.995018   -3.781952   -5.695377 C.3       1 <1>        -0.531100 
     13 C           3.073743   -2.264388   -3.671188 C.ar      1 <1>        -0.247200 
     14 N           0.990038   -0.221202   -0.956388 N.ar      1 <1>        -0.522900 
     15 C          -0.116456   -0.349477   -0.296270 C.ar      1 <1>         0.344200 
     16 S          -1.472499    0.802462   -0.424176 S.3       1 <1>         0.175200 
     17 C          -0.815163    2.026792   -1.631080 C.3       1 <1>        -0.537800 
     18 C          -1.815536    2.244732   -2.770762 C.2       1 <1>         0.399600 
     19 O          -2.521524    3.241205   -2.736890 O.2       1 <1>        -0.449300 
     20 C          -1.917906    1.252230   -3.881024 C.ar      1 <1>         0.076100 
     21 C          -2.938682    1.440646   -4.828834 C.ar      1 <1>        -0.155000 
     22 C          -3.078731    0.561683   -5.896910 C.ar      1 <1>        -0.132800 
     23 C          -2.195457   -0.514195   -6.035911 C.ar      1 <1>        -0.119500 
     24 C          -1.175587   -0.707131   -5.102541 C.ar      1 <1>        -0.145400 
     25 C          -1.036616    0.169360   -4.025590 C.ar      1 <1>        -0.187900 
     26 N          -0.339425   -1.372921    0.572738 N.ar      1 <1>        -0.655300 
     27 C           0.612915   -2.379417    0.843272 C.ar      1 <1>         0.584700 
     28 O           0.341032   -3.262923    1.647160 O.2       1 <1>        -0.521300 
     29 H           3.344495   -5.383999    0.000095 H         1 <1>         0.145600 
     30 H           2.535068   -4.565977   -1.350584 H         1 <1>         0.145600 
     31 H           1.612491   -5.017812    0.096469 H         1 <1>         0.179100 
     32 H           3.893533   -2.955069    0.081478 H         1 <1>         0.140200 
     33 H           2.936715   -3.429397    1.478901 H         1 <1>         0.169200 
     34 H           3.525541    0.178389   -1.344018 H         1 <1>         0.167000 
     35 H           4.066219   -1.494182   -1.244425 H         1 <1>         0.161900 
     36 H           2.829197    1.110653   -3.416230 H         1 <1>         0.119000 
     37 H           1.333866    1.450381   -6.162089 H         1 <1>         0.174400 
     38 H           2.761674    1.085548   -7.137037 H         1 <1>         0.155800 
     39 H           2.904622    2.115520   -5.701594 H         1 <1>         0.156200 
     40 H           2.577889   -1.373826   -6.906392 H         1 <1>         0.114600 
     41 H           4.025429   -4.017318   -5.993792 H         1 <1>         0.167600 
     42 H           2.376437   -3.840504   -6.597376 H         1 <1>         0.155700 
     43 H           2.668601   -4.570222   -5.008699 H         1 <1>         0.158100 
     44 H           3.241342   -3.146323   -3.056280 H         1 <1>         0.128500 
     45 H          -0.694087    2.977294   -1.110149 H         1 <1>         0.212100 
     46 H           0.158524    1.644955   -1.949988 H         1 <1>         0.240300 
     47 H          -3.607699    2.285583   -4.703860 H         1 <1>         0.164300 
     48 H          -3.872673    0.712475   -6.623265 H         1 <1>         0.138700 
     49 H          -2.302693   -1.199955   -6.872444 H         1 <1>         0.137700 
     50 H          -0.480240   -1.534032   -5.211179 H         1 <1>         0.149300 
     51 H          -0.236249    0.001566   -3.312114 H         1 <1>         0.174300 
     52 H          -1.212299   -1.455191    1.084970 H         1 <1>         0.356300 
@<TRIPOS>BOND
     1    9   39 1    
     2    5   34 1    
     3    7   36 1    
     4   17   45 1    
     5    9   38 1    
     6    9   37 1    
     7    8    9 1    
     8    5   35 1    
     9    7    8 ar   
    10    6    7 ar   
    11    5    6 1    
    12    4    5 1    
    13   17   46 1    
    14   18   17 1    
    15   17   16 1    
    16    8   10 ar   
    17    6   13 ar   
    18   18   19 2    
    19   14    4 ar   
    20   15   14 ar   
    21    4    3 ar   
    22    2   32 1    
    23   20   18 1    
    24   16   15 1    
    25   10   40 1    
    26   11   10 ar   
    27   15   26 ar   
    28   13   44 1    
    29   13   11 ar   
    30    2   33 1    
    31    3    2 1    
    32    3   27 ar   
    33    2    1 1    
    34   25   51 1    
    35   20   25 ar   
    36   20   21 ar   
    37   11   12 1    
    38   26   27 ar   
    39   26   52 1    
    40   25   24 ar   
    41   27   28 2    
    42   21   47 1    
    43   21   22 ar   
    44   12   41 1    
    45    1   29 1    
    46    1   30 1    
    47    1   31 1    
    48   12   42 1    
    49   12   43 1    
    50   24   50 1    
    51   24   23 ar   
    52   22   23 ar   
    53   22   48 1    
    54   23   49 1    
@<TRIPOS>SUBSTRUCTURE
     1 ****       45 TEMP              0 ****  ****    0 ROOT 
