#	Name:			WYP-2008-BMC-3887-5G
#	Creating user name:	Administrator
#	Creation time:		Sun Jul 05 16:57:01 2020

#	Modifying user name:	Administrator
#	Modification time:	Sun Jul 05 16:57:59 2020

@<TRIPOS>MOLECULE
WYP-2008-BMC-3887-5G
   47    49     1     0     0
SMALL
MULLIKEN_CHARGES
INVALID_CHARGES
Gaussian 16 #p B3LYP/6-31G* opt
@<TRIPOS>ATOM
      1 C          -9.341680    1.694155   -1.168171 C.3       1 <1>        -0.223800 
      2 O          -8.843196    0.449474   -0.689715 O.3       1 <1>        -0.494000 
      3 C          -7.543300    0.364402   -0.321661 C.ar      1 <1>         0.392300 
      4 C          -6.630150    1.427906   -0.368995 C.ar      1 <1>        -0.199500 
      5 C          -5.315171    1.222938    0.041723 C.ar      1 <1>        -0.184600 
      6 C          -4.880111   -0.030679    0.497377 C.ar      1 <1>         0.083500 
      7 C          -3.496874   -0.311308    0.933488 C.2       1 <1>         0.427500 
      8 O          -3.149361   -1.447993    1.256318 O.2       1 <1>        -0.477100 
      9 C          -2.450053    0.798615    0.982921 C.3       1 <1>        -0.566000 
     10 S          -1.401501    0.865099   -0.535534 S.3       1 <1>         0.201300 
     11 C          -0.141846   -0.371607   -0.241867 C.ar      1 <1>         0.317600 
     12 N           0.952903   -0.199523   -0.921045 N.ar      1 <1>        -0.506700 
     13 C           1.940757   -1.142410   -0.769856 C.ar      1 <1>         0.256900 
     14 C           3.198563   -0.931314   -1.603167 C.3       1 <1>        -0.461800 
     15 C           3.134780    0.216966   -2.580553 C.ar      1 <1>         0.210800 
     16 C           2.643465    0.058212   -3.887220 C.ar      1 <1>        -0.117500 
     17 CL          2.038472   -1.513087   -4.410905 Cl        1 <1>        -0.013900 
     18 C           2.601162    1.097907   -4.813619 C.ar      1 <1>        -0.125900 
     19 C           3.059059    2.358781   -4.440843 C.ar      1 <1>        -0.124000 
     20 C           3.548386    2.571428   -3.154909 C.ar      1 <1>        -0.126100 
     21 C           3.576425    1.509725   -2.252948 C.ar      1 <1>        -0.115000 
     22 CL          4.195352    1.844615   -0.636265 Cl        1 <1>        -0.015000 
     23 C           1.853810   -2.211589    0.089450 C.ar      1 <1>         0.059000 
     24 C           2.948870   -3.226742    0.275763 C.3       1 <1>        -0.541200 
     25 C           0.631292   -2.398989    0.857579 C.ar      1 <1>         0.567300 
     26 O           0.387837   -3.302042    1.648640 O.2       1 <1>        -0.525500 
     27 N          -0.351597   -1.406469    0.606906 N.ar      1 <1>        -0.662400 
     28 C          -5.812994   -1.090372    0.530215 C.ar      1 <1>        -0.156500 
     29 C          -7.121414   -0.899823    0.133504 C.ar      1 <1>        -0.170800 
     30 H          -9.261240    2.476721   -0.403676 H         1 <1>         0.161000 
     31 H          -8.814363    2.012861   -2.075717 H         1 <1>         0.162500 
     32 H         -10.393186    1.521247   -1.401152 H         1 <1>         0.181700 
     33 H          -6.931203    2.407247   -0.721336 H         1 <1>         0.144200 
     34 H          -4.629435    2.062013   -0.014703 H         1 <1>         0.142200 
     35 H          -1.807391    0.633893    1.851433 H         1 <1>         0.219500 
     36 H          -2.879971    1.797675    1.068249 H         1 <1>         0.200300 
     37 H           3.414040   -1.857208   -2.146531 H         1 <1>         0.188700 
     38 H           4.042940   -0.779361   -0.921846 H         1 <1>         0.190800 
     39 H           2.212607    0.914613   -5.809024 H         1 <1>         0.156900 
     40 H           3.032628    3.177919   -5.153397 H         1 <1>         0.145000 
     41 H           3.904697    3.547676   -2.845749 H         1 <1>         0.156600 
     42 H           3.888892   -2.759215    0.595909 H         1 <1>         0.157100 
     43 H           3.160657   -3.774123   -0.652479 H         1 <1>         0.160600 
     44 H           2.645026   -3.949069    1.035992 H         1 <1>         0.195100 
     45 H          -1.270232   -1.567522    1.038396 H         1 <1>         0.397000 
     46 H          -5.475985   -2.061554    0.876529 H         1 <1>         0.176700 
     47 H          -7.845544   -1.707709    0.158842 H         1 <1>         0.155100 
@<TRIPOS>BOND
     1   21   22 1    
     2    9   36 1    
     3    9   35 1    
     4   20   41 1    
     5   10    9 1    
     6    9    7 1    
     7    5   34 1    
     8   21   20 ar   
     9   20   19 ar   
    10   15   21 ar   
    11    4   33 1    
    12   11   10 1    
    13    5    4 ar   
    14    6    5 ar   
    15    1   30 1    
    16    7    6 1    
    17    7    8 2    
    18    4    3 ar   
    19   12   11 ar   
    20   27   11 ar   
    21    6   28 ar   
    22   14   38 1    
    23   13   12 ar   
    24   27   45 1    
    25   25   27 ar   
    26   19   40 1    
    27   19   18 ar   
    28   24   42 1    
    29   23   13 ar   
    30   13   14 1    
    31   25   26 2    
    32   23   25 ar   
    33   14   15 1    
    34   15   16 ar   
    35    1   31 1    
    36    1   32 1    
    37    2    1 1    
    38    3    2 1    
    39    3   29 ar   
    40   23   24 1    
    41   14   37 1    
    42   28   29 ar   
    43   28   46 1    
    44   24   44 1    
    45   24   43 1    
    46   29   47 1    
    47   18   16 ar   
    48   18   39 1    
    49   16   17 1    
@<TRIPOS>SUBSTRUCTURE
     1 ****       41 TEMP              0 ****  ****    0 ROOT 
