#	Name:			WYP-2009-EJMC-1016-5T
#	Creating user name:	Administrator
#	Creation time:		Sun Jul 05 16:57:10 2020

#	Modifying user name:	Administrator
#	Modification time:	Sun Jul 05 16:57:59 2020

@<TRIPOS>MOLECULE
WYP-2009-EJMC-1016-5T
   54    56     1     0     0
SMALL
MULLIKEN_CHARGES
INVALID_CHARGES
Gaussian 16 #p B3LYP/6-31G* opt
@<TRIPOS>ATOM
      1 C           2.728833   -4.529143   -0.485572 C.3       1 <1>        -0.445600 
      2 C           2.938512   -3.244900    0.337832 C.3       1 <1>        -0.334500 
      3 C           1.864735   -2.210046    0.101293 C.ar      1 <1>         0.047800 
      4 C           1.954889   -1.137386   -0.753594 C.ar      1 <1>         0.227100 
      5 C           3.187493   -0.836568   -1.591404 C.3       1 <1>        -0.421200 
      6 C           4.087655    0.222286   -0.970816 C.ar      1 <1>         0.158800 
      7 C           3.625859    1.531997   -0.782752 C.ar      1 <1>        -0.197600 
      8 C           4.453417    2.499232   -0.213034 C.ar      1 <1>        -0.013400 
      9 C           3.915901    3.883636    0.040506 C.3       1 <1>         0.791500 
     10 F           3.003198    4.245827   -0.886177 F         1 <1>        -0.267100 
     11 F           3.307017    3.966201    1.246576 F         1 <1>        -0.260000 
     12 F           4.897176    4.813011    0.031734 F         1 <1>        -0.269500 
     13 C           5.757279    2.183447    0.173672 C.ar      1 <1>        -0.197100 
     14 C           6.221823    0.884247   -0.015413 C.ar      1 <1>        -0.011500 
     15 C           7.645340    0.535278    0.330173 C.3       1 <1>         0.789900 
     16 F           8.459918    0.649153   -0.744708 F         1 <1>        -0.259100 
     17 F           8.144150    1.342187    1.290985 F         1 <1>        -0.267800 
     18 F           7.754553   -0.738663    0.769296 F         1 <1>        -0.269600 
     19 C           5.392805   -0.088820   -0.581373 C.ar      1 <1>        -0.211800 
     20 N           0.940939   -0.221040   -0.944393 N.ar      1 <1>        -0.515600 
     21 C          -0.153676   -0.370406   -0.256952 C.ar      1 <1>         0.329900 
     22 S          -1.402989    0.868870   -0.516126 S.3       1 <1>         0.192500 
     23 C          -2.951614    0.127700    0.178802 C.3       1 <1>        -0.547000 
     24 C          -3.039908   -0.027057    1.681133 C.ar      1 <1>         0.134400 
     25 C          -2.751633    1.028855    2.552951 C.ar      1 <1>        -0.171300 
     26 C          -2.880514    0.887566    3.933900 C.ar      1 <1>        -0.192300 
     27 C          -3.304820   -0.335843    4.473177 C.ar      1 <1>         0.381300 
     28 O          -3.461476   -0.584649    5.801333 O.3       1 <1>        -0.501700 
     29 C          -3.161966    0.452447    6.725227 C.3       1 <1>        -0.220100 
     30 C          -3.594401   -1.403891    3.613168 C.ar      1 <1>        -0.158700 
     31 C          -3.463092   -1.245834    2.238112 C.ar      1 <1>        -0.201000 
     32 N          -0.341310   -1.395478    0.614097 N.ar      1 <1>        -0.651700 
     33 C           0.629566   -2.399393    0.850121 C.ar      1 <1>         0.576200 
     34 O           0.379500   -3.302651    1.639827 O.2       1 <1>        -0.524700 
     35 H           1.760263   -4.978703   -0.246653 H         1 <1>         0.171800 
     36 H           3.509784   -5.264149   -0.260160 H         1 <1>         0.147100 
     37 H           2.754958   -4.323875   -1.562328 H         1 <1>         0.139700 
     38 H           3.928067   -2.824746    0.132878 H         1 <1>         0.136800 
     39 H           2.920011   -3.507127    1.401115 H         1 <1>         0.173600 
     40 H           3.764890   -1.746390   -1.769618 H         1 <1>         0.163300 
     41 H           2.832002   -0.479794   -2.564686 H         1 <1>         0.185300 
     42 H           2.614541    1.786943   -1.080882 H         1 <1>         0.185300 
     43 H           6.399190    2.938500    0.611567 H         1 <1>         0.173100 
     44 H           5.773073   -1.096773   -0.717704 H         1 <1>         0.155900 
     45 H          -3.708211    0.830243   -0.190564 H         1 <1>         0.208300 
     46 H          -3.138165   -0.825660   -0.325067 H         1 <1>         0.194400 
     47 H          -2.408984    1.978542    2.150400 H         1 <1>         0.151200 
     48 H          -2.645377    1.728080    4.576388 H         1 <1>         0.142900 
     49 H          -3.348199    0.031865    7.714608 H         1 <1>         0.176800 
     50 H          -2.111542    0.762875    6.654461 H         1 <1>         0.158700 
     51 H          -3.809777    1.325688    6.574399 H         1 <1>         0.155300 
     52 H          -3.914898   -2.347248    4.042846 H         1 <1>         0.152600 
     53 H          -3.701603   -2.083741    1.585981 H         1 <1>         0.141700 
     54 H          -1.168500   -1.451850    1.202543 H         1 <1>         0.366700 
@<TRIPOS>BOND
     1   29   49 1    
     2   29   50 1    
     3   29   51 1    
     4   28   29 1    
     5   27   28 1    
     6   15   17 1    
     7   15   18 1    
     8   26   27 ar   
     9   30   27 ar   
    10   26   48 1    
    11   15   16 1    
    12   14   15 1    
    13    2   39 1    
    14   30   52 1    
    15   25   26 ar   
    16   13   43 1    
    17   31   30 ar   
    18   33   34 2    
    19   14   13 ar   
    20   19   14 ar   
    21    2   38 1    
    22    2    1 1    
    23    3    2 1    
    24    1   36 1    
    25    8   13 ar   
    26    9   11 1    
    27   19   44 1    
    28    6   19 ar   
    29   33    3 ar   
    30   32   33 ar   
    31    1   35 1    
    32    1   37 1    
    33   25   47 1    
    34   24   25 ar   
    35    4    3 ar   
    36   31   53 1    
    37   24   31 ar   
    38    8    9 1    
    39    7    8 ar   
    40    9   12 1    
    41   32   54 1    
    42    9   10 1    
    43   21   32 ar   
    44    6    7 ar   
    45    5    6 1    
    46   23   24 1    
    47    7   42 1    
    48    4    5 1    
    49   20    4 ar   
    50    5   40 1    
    51    5   41 1    
    52   21   20 ar   
    53   22   21 1    
    54   23   22 1    
    55   23   46 1    
    56   23   45 1    
@<TRIPOS>SUBSTRUCTURE
     1 ****       49 TEMP              0 ****  ****    0 ROOT 
