#	Name:			WYP-2009-EJMC-1016-5D
#	Creating user name:	Administrator
#	Creation time:		Sun Jul 05 16:57:07 2020

#	Modifying user name:	Administrator
#	Modification time:	Sun Jul 05 16:57:59 2020

@<TRIPOS>MOLECULE
WYP-2009-EJMC-1016-5D
   43    45     1     0     0
SMALL
MULLIKEN_CHARGES
INVALID_CHARGES
Gaussian 16 #p B3LYP/6-31G* opt
@<TRIPOS>ATOM
      1 C           2.940075   -3.245310    0.347544 C.3       1 <1>        -0.550000 
      2 C           1.863111   -2.219895    0.107907 C.ar      1 <1>         0.065100 
      3 C           1.983665   -1.160223   -0.756133 C.ar      1 <1>         0.239600 
      4 C           3.246524   -0.913450   -1.559255 C.3       1 <1>        -0.414100 
      5 C           4.299234   -0.109609   -0.804763 C.ar      1 <1>         0.169900 
      6 C           5.591259   -0.614090   -0.619245 C.ar      1 <1>        -0.186700 
      7 C           6.557599    0.132711    0.057938 C.ar      1 <1>        -0.128400 
      8 C           6.251815    1.395468    0.563075 C.ar      1 <1>        -0.147600 
      9 C           4.962777    1.891602    0.373891 C.ar      1 <1>         0.085900 
     10 BR          4.520527    3.626526    1.054373 Br        1 <1>        -0.132800 
     11 C           3.989116    1.160758   -0.298696 C.ar      1 <1>        -0.195700 
     12 N           0.990197   -0.217383   -0.962648 N.ar      1 <1>        -0.531700 
     13 C          -0.116783   -0.348214   -0.295084 C.ar      1 <1>         0.345800 
     14 S          -1.471061    0.803312   -0.427136 S.3       1 <1>         0.169100 
     15 C          -0.853658    1.955939   -1.738696 C.3       1 <1>        -0.539400 
     16 C          -1.394010    1.657924   -3.113292 C.ar      1 <1>         0.199600 
     17 C          -0.808324    0.659407   -3.907491 C.ar      1 <1>        -0.187800 
     18 C          -1.299160    0.383585   -5.178923 C.ar      1 <1>        -0.146900 
     19 C          -2.385837    1.117958   -5.651951 C.ar      1 <1>         0.274700 
     20 N          -2.908881    0.833861   -6.997557 N.pl3     1 <1>         0.380500 
     21 O          -2.355507   -0.050607   -7.650322 O.2       1 <1>        -0.393100 
     22 O          -3.868280    1.497639   -7.389724 O.2       1 <1>        -0.393600 
     23 C          -2.988755    2.115580   -4.889986 C.ar      1 <1>        -0.145000 
     24 C          -2.484412    2.379000   -3.619419 C.ar      1 <1>        -0.190900 
     25 N          -0.333087   -1.371347    0.573254 N.ar      1 <1>        -0.652400 
     26 C           0.618766   -2.384169    0.849387 C.ar      1 <1>         0.575400 
     27 O           0.336848   -3.269611    1.644725 O.2       1 <1>        -0.516200 
     28 H           2.620519   -3.924679    1.140196 H         1 <1>         0.198700 
     29 H           3.138180   -3.844494   -0.550982 H         1 <1>         0.162000 
     30 H           3.884382   -2.777276    0.646940 H         1 <1>         0.169900 
     31 H           3.682624   -1.867767   -1.870227 H         1 <1>         0.161400 
     32 H           2.959120   -0.373698   -2.468700 H         1 <1>         0.175600 
     33 H           5.845792   -1.595078   -1.012150 H         1 <1>         0.134400 
     34 H           7.557066   -0.270815    0.194756 H         1 <1>         0.144000 
     35 H           6.994408    1.983633    1.090636 H         1 <1>         0.156100 
     36 H           2.993813    1.570820   -0.428816 H         1 <1>         0.162200 
     37 H          -1.152718    2.950417   -1.399086 H         1 <1>         0.199800 
     38 H           0.235121    1.878205   -1.703091 H         1 <1>         0.237200 
     39 H           0.036553    0.099915   -3.518121 H         1 <1>         0.168000 
     40 H          -0.857790   -0.380577   -5.806721 H         1 <1>         0.185800 
     41 H          -3.829063    2.665187   -5.295641 H         1 <1>         0.186700 
     42 H          -2.943587    3.157277   -3.015456 H         1 <1>         0.146400 
     43 H          -1.211510   -1.462194    1.074559 H         1 <1>         0.358500 
@<TRIPOS>BOND
     1   25   43 1    
     2   14   15 1    
     3   13   14 1    
     4   24   42 1    
     5   15   37 1    
     6   13   25 ar   
     7   26   25 ar   
     8   15   38 1    
     9   15   16 1    
    10   26   27 2    
    11   16   24 ar   
    12   24   23 ar   
    13   12   13 ar   
    14   23   41 1    
    15    2   26 ar   
    16    9   10 1    
    17   16   17 ar   
    18   23   19 ar   
    19    3   12 ar   
    20   11   36 1    
    21    3    2 ar   
    22    2    1 1    
    23   11    9 ar   
    24    9    8 ar   
    25   17   39 1    
    26   17   18 ar   
    27    4    3 1    
    28    1   28 1    
    29   18   19 ar   
    30   19   20 1    
    31    5   11 ar   
    32   20   22 2    
    33    1   30 1    
    34    1   29 1    
    35    8   35 1    
    36   18   40 1    
    37    8    7 ar   
    38   20   21 2    
    39    5    4 1    
    40    5    6 ar   
    41    4   32 1    
    42    4   31 1    
    43    7    6 ar   
    44    7   34 1    
    45    6   33 1    
@<TRIPOS>SUBSTRUCTURE
     1 ****       10 TEMP              0 ****  ****    0 ROOT 
