#	Name:			WYP-2008-BMC-3887-5J
#	Creating user name:	Administrator
#	Creation time:		Sun Jul 05 16:57:02 2020

#	Modifying user name:	Administrator
#	Modification time:	Sun Jul 05 16:57:59 2020

@<TRIPOS>MOLECULE
WYP-2008-BMC-3887-5J
   50    52     1     0     0
SMALL
MULLIKEN_CHARGES
INVALID_CHARGES
Gaussian 16 #p B3LYP/6-31G* opt
@<TRIPOS>ATOM
      1 C           3.743807   -3.011556    1.582307 C.3       1 <1>        -0.446000 
      2 C           2.928216   -3.254247    0.298627 C.3       1 <1>        -0.331200 
      3 C           1.850478   -2.219965    0.080201 C.ar      1 <1>         0.050200 
      4 C           1.962078   -1.124257   -0.741495 C.ar      1 <1>         0.189200 
      5 C           3.215639   -0.802863   -1.524489 C.3       1 <1>        -0.407400 
      6 C           3.289446   -1.390352   -2.926921 C.ar      1 <1>         0.147300 
      7 C           2.266855   -2.179129   -3.470463 C.ar      1 <1>        -0.170100 
      8 C           2.353384   -2.707239   -4.758706 C.ar      1 <1>        -0.128000 
      9 C           3.477746   -2.456168   -5.543075 C.ar      1 <1>        -0.129200 
     10 C           4.513448   -1.674110   -5.032227 C.ar      1 <1>        -0.147100 
     11 C           4.405699   -1.156358   -3.744027 C.ar      1 <1>         0.023900 
     12 BR          5.860647   -0.085438   -3.090331 Br        1 <1>        -0.135500 
     13 N           0.939512   -0.216569   -0.940663 N.ar      1 <1>        -0.495200 
     14 C          -0.151379   -0.382195   -0.256208 C.ar      1 <1>         0.315200 
     15 S          -1.397110    0.873841   -0.527137 S.3       1 <1>         0.201000 
     16 C          -2.973458    0.055443   -0.021884 C.3       1 <1>        -0.565900 
     17 C          -3.210704    0.102742    1.485366 C.2       1 <1>         0.427000 
     18 O          -2.672390   -0.759219    2.181746 O.2       1 <1>        -0.478000 
     19 C          -4.048279    1.159066    2.088377 C.ar      1 <1>         0.083700 
     20 C          -4.276522    1.109881    3.481293 C.ar      1 <1>        -0.156500 
     21 C          -5.046103    2.067318    4.110830 C.ar      1 <1>        -0.170700 
     22 C          -5.610983    3.120400    3.365391 C.ar      1 <1>         0.392600 
     23 O          -6.346383    4.008925    4.073233 O.3       1 <1>        -0.493700 
     24 C          -6.943011    5.106425    3.389997 C.3       1 <1>        -0.224200 
     25 C          -5.389691    3.191275    1.982028 C.ar      1 <1>        -0.199400 
     26 C          -4.617749    2.213819    1.359051 C.ar      1 <1>        -0.184500 
     27 N          -0.349536   -1.397106    0.621906 N.ar      1 <1>        -0.665000 
     28 C           0.624762   -2.400138    0.850093 C.ar      1 <1>         0.572500 
     29 O           0.392850   -3.301141    1.647577 O.2       1 <1>        -0.522700 
     30 H           4.493276   -3.799752    1.717164 H         1 <1>         0.144200 
     31 H           3.085402   -3.013932    2.455977 H         1 <1>         0.172600 
     32 H           4.266660   -2.048548    1.547475 H         1 <1>         0.141200 
     33 H           3.594969   -3.296352   -0.568452 H         1 <1>         0.144000 
     34 H           2.441829   -4.232972    0.377472 H         1 <1>         0.167200 
     35 H           4.103203   -1.117877   -0.965411 H         1 <1>         0.179900 
     36 H           3.279588    0.288417   -1.604463 H         1 <1>         0.192100 
     37 H           1.386648   -2.380159   -2.868695 H         1 <1>         0.141700 
     38 H           1.540100   -3.314539   -5.146148 H         1 <1>         0.134600 
     39 H           3.555684   -2.863039   -6.547323 H         1 <1>         0.136700 
     40 H           5.398324   -1.465283   -5.623626 H         1 <1>         0.152100 
     41 H          -3.747352    0.563265   -0.599462 H         1 <1>         0.201000 
     42 H          -2.949489   -0.990357   -0.338329 H         1 <1>         0.218000 
     43 H          -3.831704    0.298273    4.047001 H         1 <1>         0.176600 
     44 H          -5.229509    2.035190    5.179964 H         1 <1>         0.155500 
     45 H          -7.473607    5.676442    4.153712 H         1 <1>         0.182100 
     46 H          -7.655468    4.763399    2.629769 H         1 <1>         0.161200 
     47 H          -6.183995    5.743852    2.920156 H         1 <1>         0.163000 
     48 H          -5.809130    3.995803    1.389920 H         1 <1>         0.144900 
     49 H          -4.456250    2.300359    0.289464 H         1 <1>         0.142400 
     50 H          -1.176002   -1.424934    1.232310 H         1 <1>         0.396700 
@<TRIPOS>BOND
     1    1   32 1    
     2    1   31 1    
     3    1   30 1    
     4   11   12 1    
     5    2    1 1    
     6   24   47 1    
     7    5   35 1    
     8   24   45 1    
     9   21   44 1    
    10    5   36 1    
    11   23   24 1    
    12   22   23 1    
    13   24   46 1    
    14   21   22 ar   
    15   20   21 ar   
    16    4    5 1    
    17    5    6 1    
    18   25   22 ar   
    19   20   43 1    
    20   19   20 ar   
    21    2   33 1    
    22    3    2 1    
    23    2   34 1    
    24    4    3 ar   
    25   13    4 ar   
    26   28    3 ar   
    27   14   13 ar   
    28   25   48 1    
    29   26   25 ar   
    30    6   11 ar   
    31   11   10 ar   
    32   28   29 2    
    33   27   28 ar   
    34   14   27 ar   
    35   15   14 1    
    36   19   26 ar   
    37   17   19 1    
    38    6    7 ar   
    39   27   50 1    
    40   16   15 1    
    41   17   18 2    
    42   26   49 1    
    43   17   16 1    
    44   10   40 1    
    45   10    9 ar   
    46   16   41 1    
    47   16   42 1    
    48    7   37 1    
    49    7    8 ar   
    50    9    8 ar   
    51    9   39 1    
    52    8   38 1    
@<TRIPOS>SUBSTRUCTURE
     1 ****       44 TEMP              0 ****  ****    0 ROOT 
