#	Name:			WYP-2009-EJMC-1016-5O
#	Creating user name:	Administrator
#	Creation time:		Sun Jul 05 16:57:09 2020

#	Modifying user name:	Administrator
#	Modification time:	Sun Jul 05 16:57:59 2020

@<TRIPOS>MOLECULE
WYP-2009-EJMC-1016-5O
   48    50     1     0     0
SMALL
MULLIKEN_CHARGES
INVALID_CHARGES
Gaussian 16 #p B3LYP/6-31G* opt
@<TRIPOS>ATOM
      1 C           2.724445   -4.530800   -0.476187 C.3       1 <1>        -0.445600 
      2 C           2.940552   -3.240729    0.336250 C.3       1 <1>        -0.333900 
      3 C           1.864540   -2.207428    0.104595 C.ar      1 <1>         0.048100 
      4 C           1.947591   -1.151235   -0.772336 C.ar      1 <1>         0.227700 
      5 C           3.163454   -0.883354   -1.643303 C.3       1 <1>        -0.420300 
      6 C           4.148533    0.097711   -1.021541 C.ar      1 <1>         0.174000 
      7 C           5.464100   -0.288563   -0.742373 C.ar      1 <1>        -0.190700 
      8 C           6.378970    0.603738   -0.179334 C.ar      1 <1>        -0.147200 
      9 C           5.965784    1.900907    0.107481 C.ar      1 <1>         0.081900 
     10 BR          7.208014    3.137220    0.879720 Br        1 <1>        -0.139400 
     11 C           4.662207    2.316083   -0.161339 C.ar      1 <1>        -0.146900 
     12 C           3.762352    1.413051   -0.724610 C.ar      1 <1>        -0.177600 
     13 N           0.950176   -0.209566   -0.930148 N.ar      1 <1>        -0.511100 
     14 C          -0.145273   -0.361602   -0.246815 C.ar      1 <1>         0.326000 
     15 S          -1.410568    0.860435   -0.522327 S.3       1 <1>         0.185200 
     16 C          -2.522392    0.722532    0.956445 C.3       1 <1>        -0.546400 
     17 C          -3.404129   -0.501056    1.052084 C.ar      1 <1>         0.143600 
     18 C          -3.403347   -1.283387    2.210852 C.ar      1 <1>        -0.211800 
     19 C          -4.231345   -2.404002    2.341766 C.ar      1 <1>        -0.182200 
     20 C          -5.086559   -2.753161    1.292813 C.ar      1 <1>         0.380300 
     21 O          -5.933067   -3.817891    1.300280 O.3       1 <1>        -0.502400 
     22 C          -5.945148   -4.661805    2.443628 C.3       1 <1>        -0.221400 
     23 C          -5.100970   -1.972504    0.123119 C.ar      1 <1>        -0.169000 
     24 C          -4.271365   -0.869146    0.007430 C.ar      1 <1>        -0.165300 
     25 N          -0.343807   -1.399571    0.607141 N.ar      1 <1>        -0.652400 
     26 C           0.631996   -2.394970    0.855181 C.ar      1 <1>         0.574500 
     27 O           0.377000   -3.303591    1.638983 O.2       1 <1>        -0.531000 
     28 H           3.509096   -5.263413   -0.254915 H         1 <1>         0.143900 
     29 H           1.759144   -4.980168   -0.224026 H         1 <1>         0.171300 
     30 H           2.738431   -4.332717   -1.554605 H         1 <1>         0.139900 
     31 H           3.926022   -2.818005    0.117966 H         1 <1>         0.139800 
     32 H           2.933667   -3.496615    1.401490 H         1 <1>         0.169300 
     33 H           3.679393   -1.818513   -1.875540 H         1 <1>         0.158200 
     34 H           2.791238   -0.473550   -2.589261 H         1 <1>         0.179100 
     35 H           5.789680   -1.300433   -0.972444 H         1 <1>         0.134100 
     36 H           7.396671    0.293519    0.031592 H         1 <1>         0.152100 
     37 H           4.356440    3.332102    0.064258 H         1 <1>         0.152700 
     38 H           2.744169    1.727778   -0.933411 H         1 <1>         0.166700 
     39 H          -3.123806    1.633749    0.856757 H         1 <1>         0.206100 
     40 H          -1.915544    0.842161    1.858870 H         1 <1>         0.195500 
     41 H          -2.751010   -1.018083    3.040518 H         1 <1>         0.143400 
     42 H          -4.192693   -2.987313    3.253999 H         1 <1>         0.145200 
     43 H          -6.252452   -4.114077    3.343988 H         1 <1>         0.155100 
     44 H          -4.962396   -5.119482    2.614630 H         1 <1>         0.162100 
     45 H          -6.676180   -5.442954    2.229293 H         1 <1>         0.175700 
     46 H          -5.770425   -2.260292   -0.681369 H         1 <1>         0.149200 
     47 H          -4.284672   -0.285892   -0.909634 H         1 <1>         0.148100 
     48 H          -1.243272   -1.557573    1.054147 H         1 <1>         0.366000 
@<TRIPOS>BOND
     1    5   34 1    
     2    5   33 1    
     3   24   47 1    
     4    5    6 1    
     5    4    5 1    
     6   23   46 1    
     7    1   30 1    
     8   13    4 ar   
     9   14   13 ar   
    10   15   14 1    
    11   16   15 1    
    12   12   38 1    
    13    6   12 ar   
    14    6    7 ar   
    15    4    3 ar   
    16   24   23 ar   
    17   17   24 ar   
    18   23   20 ar   
    19   12   11 ar   
    20    7   35 1    
    21   14   25 ar   
    22    7    8 ar   
    23    1   29 1    
    24    1   28 1    
    25    2    1 1    
    26   11   37 1    
    27   11    9 ar   
    28    3    2 1    
    29   26    3 ar   
    30   16   39 1    
    31    8    9 ar   
    32    8   36 1    
    33   25   48 1    
    34   25   26 ar   
    35   16   17 1    
    36   16   40 1    
    37    2   31 1    
    38   17   18 ar   
    39    9   10 1    
    40   20   21 1    
    41   21   22 1    
    42    2   32 1    
    43   20   19 ar   
    44   26   27 2    
    45   22   45 1    
    46   18   19 ar   
    47   18   41 1    
    48   22   44 1    
    49   22   43 1    
    50   19   42 1    
@<TRIPOS>SUBSTRUCTURE
     1 ****       34 TEMP              0 ****  ****    0 ROOT 
