#	Name:			WYP-2009-EJMC-1016-5Y
#	Creating user name:	Administrator
#	Creation time:		Sun Jul 05 16:57:10 2020

#	Modifying user name:	Administrator
#	Modification time:	Sun Jul 05 16:57:59 2020

@<TRIPOS>MOLECULE
WYP-2009-EJMC-1016-5Y
   57    60     1     0     0
SMALL
MULLIKEN_CHARGES
INVALID_CHARGES
Gaussian 16 #p B3LYP/6-31G* opt
@<TRIPOS>ATOM
      1 C          -5.280421    6.305432   -3.522246 C.3       1 <1>        -0.216800 
      2 O          -4.341877    6.317136   -2.457869 O.3       1 <1>        -0.504500 
      3 C          -3.504027    5.249911   -2.322525 C.ar      1 <1>         0.378000 
      4 C          -3.491636    4.133329   -3.166861 C.ar      1 <1>        -0.194500 
      5 C          -2.582276    3.100461   -2.928237 C.ar      1 <1>        -0.174500 
      6 C          -1.676623    3.153440   -1.865380 C.ar      1 <1>         0.139200 
      7 C          -0.700724    2.034885   -1.621609 C.3       1 <1>        -0.492200 
      8 S          -1.463665    0.802444   -0.456521 S.3       1 <1>         0.146800 
      9 C          -0.122465   -0.347744   -0.280986 C.ar      1 <1>         0.321600 
     10 N           0.983719   -0.215678   -0.945815 N.ar      1 <1>        -0.511900 
     11 C           1.984437   -1.146199   -0.750116 C.ar      1 <1>         0.241600 
     12 C           3.226538   -0.865197   -1.590610 C.3       1 <1>        -0.448300 
     13 C           3.468303    0.592722   -1.935094 C.ar      1 <1>         0.161500 
     14 C           3.330775    1.013968   -3.242210 C.ar      1 <1>        -0.209500 
     15 C           3.575430    2.353934   -3.624931 C.ar      1 <1>        -0.131200 
     16 C           3.966116    3.278277   -2.686765 C.ar      1 <1>        -0.193400 
     17 C           4.128598    2.898281   -1.327362 C.ar      1 <1>         0.137800 
     18 C           4.540569    3.836578   -0.343211 C.ar      1 <1>        -0.197300 
     19 C           4.700496    3.463884    0.971815 C.ar      1 <1>        -0.132400 
     20 C           4.450906    2.126923    1.359996 C.ar      1 <1>        -0.141300 
     21 C           4.049588    1.192568    0.430166 C.ar      1 <1>        -0.198600 
     22 C           3.876564    1.539241   -0.938559 C.ar      1 <1>         0.081500 
     23 C           1.860836   -2.238179    0.083363 C.ar      1 <1>         0.027400 
     24 C           2.879462   -3.347517    0.332843 C.3       1 <1>        -0.154900 
     25 C           4.056820   -2.902113    1.224325 C.3       1 <1>        -0.449400 
     26 C           3.360052   -4.073203   -0.938281 C.3       1 <1>        -0.448900 
     27 C           0.617740   -2.384040    0.842543 C.ar      1 <1>         0.569800 
     28 O           0.341870   -3.267818    1.648077 O.2       1 <1>        -0.529700 
     29 N          -0.330817   -1.370318    0.593728 N.ar      1 <1>        -0.646200 
     30 C          -1.706143    4.280613   -1.027408 C.ar      1 <1>        -0.167300 
     31 C          -2.602266    5.316539   -1.249143 C.ar      1 <1>        -0.171500 
     32 H          -5.974154    5.458370   -3.439209 H         1 <1>         0.154300 
     33 H          -4.781788    6.268773   -4.499765 H         1 <1>         0.153300 
     34 H          -5.839677    7.238908   -3.437860 H         1 <1>         0.172400 
     35 H          -4.174598    4.057751   -4.005073 H         1 <1>         0.134800 
     36 H          -2.580493    2.237791   -3.590550 H         1 <1>         0.134400 
     37 H          -0.443484    1.499468   -2.536816 H         1 <1>         0.203800 
     38 H           0.226640    2.380166   -1.161384 H         1 <1>         0.214800 
     39 H           4.106425   -1.282932   -1.094340 H         1 <1>         0.169300 
     40 H           3.121063   -1.421554   -2.531121 H         1 <1>         0.173400 
     41 H           3.024709    0.297077   -4.000429 H         1 <1>         0.121800 
     42 H           3.454642    2.643700   -4.665332 H         1 <1>         0.128000 
     43 H           4.160400    4.310171   -2.969751 H         1 <1>         0.127800 
     44 H           4.729529    4.862386   -0.651826 H         1 <1>         0.128500 
     45 H           5.017345    4.192513    1.713157 H         1 <1>         0.129200 
     46 H           4.575208    1.835822    2.399572 H         1 <1>         0.130200 
     47 H           3.852204    0.175631    0.751821 H         1 <1>         0.143100 
     48 H           2.323048   -4.085961    0.918700 H         1 <1>         0.177700 
     49 H           3.692284   -2.465116    2.160211 H         1 <1>         0.154500 
     50 H           4.703758   -2.164541    0.735306 H         1 <1>         0.144600 
     51 H           4.682638   -3.765720    1.479704 H         1 <1>         0.145400 
     52 H           2.512494   -4.385667   -1.558502 H         1 <1>         0.147700 
     53 H           3.918653   -4.974277   -0.658453 H         1 <1>         0.144800 
     54 H           4.023320   -3.460475   -1.557071 H         1 <1>         0.141500 
     55 H          -1.193471   -1.449758    1.122631 H         1 <1>         0.352000 
     56 H          -1.012426    4.345411   -0.192639 H         1 <1>         0.139300 
     57 H          -2.624001    6.191580   -0.607196 H         1 <1>         0.142500 
@<TRIPOS>BOND
     1   19   45 1    
     2   20   46 1    
     3   20   19 ar   
     4   18   19 ar   
     5   21   20 ar   
     6   31   57 1    
     7   30   56 1    
     8   25   49 1    
     9   29   55 1    
    10   30   31 ar   
    11   31    3 ar   
    12   18   44 1    
    13   17   18 ar   
    14   27   28 2    
    15   21   47 1    
    16   22   21 ar   
    17    6   30 ar   
    18   27   29 ar   
    19    9   29 ar   
    20   25   51 1    
    21   25   50 1    
    22   24   25 1    
    23   23   27 ar   
    24    9    8 1    
    25    8    7 1    
    26    3    2 1    
    27    2    1 1    
    28   10    9 ar   
    29    7   38 1    
    30    4    3 ar   
    31   24   48 1    
    32   22   17 ar   
    33   17   16 ar   
    34   13   22 ar   
    35    7    6 1    
    36    6    5 ar   
    37    1   34 1    
    38   23   24 1    
    39   11   23 ar   
    40   24   26 1    
    41    7   37 1    
    42   11   10 ar   
    43    1   32 1    
    44    1   33 1    
    45   12   11 1    
    46    5    4 ar   
    47    4   35 1    
    48   12   39 1    
    49    5   36 1    
    50   16   43 1    
    51   16   15 ar   
    52   13   12 1    
    53   13   14 ar   
    54   12   40 1    
    55   26   53 1    
    56   26   54 1    
    57   26   52 1    
    58   15   14 ar   
    59   15   42 1    
    60   14   41 1    
@<TRIPOS>SUBSTRUCTURE
     1 ****       45 TEMP              0 ****  ****    0 ROOT 
