#	Name:			WYP-2008-BMC-3887-5C
#	Creating user name:	Administrator
#	Creation time:		Sun Jul 05 16:57:01 2020

#	Modifying user name:	Administrator
#	Modification time:	Sun Jul 05 16:57:59 2020

@<TRIPOS>MOLECULE
WYP-2008-BMC-3887-5C
   48    50     1     0     0
SMALL
MULLIKEN_CHARGES
INVALID_CHARGES
Gaussian 16 #p B3LYP/6-31G* opt
@<TRIPOS>ATOM
      1 C          -7.124529    4.986018    3.298296 C.3       1 <1>        -0.224000 
      2 O          -6.509624    3.905303    3.991840 O.3       1 <1>        -0.493900 
      3 C          -5.740625    3.035616    3.296020 C.ar      1 <1>         0.392400 
      4 C          -5.499903    3.111661    1.916306 C.ar      1 <1>        -0.199500 
      5 C          -4.693846    2.153964    1.305871 C.ar      1 <1>        -0.184700 
      6 C          -4.109193    1.114089    2.044571 C.ar      1 <1>         0.083200 
      7 C          -3.236701    0.077928    1.455401 C.2       1 <1>         0.427700 
      8 O          -2.689119   -0.770082    2.161171 O.2       1 <1>        -0.477200 
      9 C          -2.975340    0.035181   -0.048049 C.3       1 <1>        -0.565500 
     10 S          -1.399714    0.871271   -0.525597 S.3       1 <1>         0.196000 
     11 C          -0.150172   -0.382115   -0.256414 C.ar      1 <1>         0.318100 
     12 N           0.941747   -0.213702   -0.939901 N.ar      1 <1>        -0.509000 
     13 C           1.959222   -1.126566   -0.745643 C.ar      1 <1>         0.229700 
     14 C           3.205004   -0.840473   -1.562747 C.3       1 <1>        -0.413300 
     15 C           3.178799   -1.481657   -2.945335 C.ar      1 <1>         0.170000 
     16 C           2.186517   -1.140063   -3.873414 C.ar      1 <1>        -0.185400 
     17 C           2.183466   -1.730347   -5.137952 C.ar      1 <1>        -0.133800 
     18 C           3.155914   -2.660286   -5.501395 C.ar      1 <1>        -0.161100 
     19 C           4.147532   -3.001103   -4.578407 C.ar      1 <1>         0.359300 
     20 O           5.089158   -3.915214   -4.969617 O.3       1 <1>        -0.645600 
     21 C           4.157081   -2.414041   -3.308064 C.ar      1 <1>        -0.265500 
     22 C           1.852437   -2.217296    0.082607 C.ar      1 <1>         0.066200 
     23 C           2.936394   -3.246113    0.272857 C.3       1 <1>        -0.548700 
     24 C           0.627163   -2.402430    0.850420 C.ar      1 <1>         0.565900 
     25 O           0.386631   -3.300674    1.647905 O.2       1 <1>        -0.523500 
     26 N          -0.345659   -1.396018    0.620896 N.ar      1 <1>        -0.663600 
     27 C          -4.357578    1.059673    3.433838 C.ar      1 <1>        -0.156500 
     28 C          -5.160737    1.997572    4.050783 C.ar      1 <1>        -0.170800 
     29 H          -6.375619    5.642979    2.839309 H         1 <1>         0.162600 
     30 H          -7.681816    5.542363    4.053051 H         1 <1>         0.181900 
     31 H          -7.815864    4.623572    2.527507 H         1 <1>         0.161200 
     32 H          -5.930629    3.904936    1.317184 H         1 <1>         0.144600 
     33 H          -4.518466    2.244076    0.238893 H         1 <1>         0.142200 
     34 H          -3.745794    0.534001   -0.637826 H         1 <1>         0.200500 
     35 H          -2.932858   -1.009717   -0.365420 H         1 <1>         0.220100 
     36 H           4.092625   -1.180863   -1.020952 H         1 <1>         0.150500 
     37 H           3.279830    0.247649   -1.668410 H         1 <1>         0.175200 
     38 H           1.423523   -0.418870   -3.597953 H         1 <1>         0.149200 
     39 H           1.412120   -1.460637   -5.854846 H         1 <1>         0.128700 
     40 H           3.164153   -3.124840   -6.482255 H         1 <1>         0.136000 
     41 H           5.706466   -4.062228   -4.236353 H         1 <1>         0.406300 
     42 H           4.940167   -2.680835   -2.598747 H         1 <1>         0.111800 
     43 H           2.564062   -4.043555    0.919152 H         1 <1>         0.194200 
     44 H           3.829307   -2.816747    0.746466 H         1 <1>         0.156100 
     45 H           3.247843   -3.684327   -0.682053 H         1 <1>         0.163200 
     46 H          -1.174432   -1.426949    1.227337 H         1 <1>         0.396900 
     47 H          -3.901265    0.259583    4.006684 H         1 <1>         0.176700 
     48 H          -5.359825    1.960936    5.117035 H         1 <1>         0.155300 
@<TRIPOS>BOND
     1   14   37 1    
     2   14   36 1    
     3   13   14 1    
     4   14   15 1    
     5   23   44 1    
     6    1   29 1    
     7   21   42 1    
     8    1   30 1    
     9   12   13 ar   
    10   13   22 ar   
    11   11   12 ar   
    12   15   21 ar   
    13   15   16 ar   
    14    2    1 1    
    15    1   31 1    
    16   21   19 ar   
    17    3    2 1    
    18   22   23 1    
    19   23   45 1    
    20   23   43 1    
    21   24   22 ar   
    22   28   48 1    
    23   10   11 1    
    24   11   26 ar   
    25    9   10 1    
    26   28    3 ar   
    27    4    3 ar   
    28   20   41 1    
    29   27   28 ar   
    30   16   38 1    
    31    4   32 1    
    32   16   17 ar   
    33    5    4 ar   
    34   27   47 1    
    35    6   27 ar   
    36   19   20 1    
    37   19   18 ar   
    38   26   24 ar   
    39   24   25 2    
    40   26   46 1    
    41    6    5 ar   
    42    5   33 1    
    43    7    6 1    
    44   17   18 ar   
    45   17   39 1    
    46    7    8 2    
    47    7    9 1    
    48   18   40 1    
    49    9   34 1    
    50    9   35 1    
@<TRIPOS>SUBSTRUCTURE
     1 ****       29 TEMP              0 ****  ****    0 ROOT 
