#	Name:			WYP-2009-EJMC-1016-5R
#	Creating user name:	Administrator
#	Creation time:		Sun Jul 05 16:57:09 2020

#	Modifying user name:	Administrator
#	Modification time:	Sun Jul 05 16:57:59 2020

@<TRIPOS>MOLECULE
WYP-2009-EJMC-1016-5R
   52    54     1     0     0
SMALL
MULLIKEN_CHARGES
INVALID_CHARGES
Gaussian 16 #p B3LYP/6-31G* opt
@<TRIPOS>ATOM
      1 C           3.776895   -3.012494    1.543601 C.3       1 <1>        -0.446200 
      2 C           2.923657   -3.268582    0.287498 C.3       1 <1>        -0.336100 
      3 C           1.852052   -2.225915    0.078022 C.ar      1 <1>         0.050300 
      4 C           1.957982   -1.133644   -0.753279 C.ar      1 <1>         0.228700 
      5 C           3.192439   -0.840448   -1.587329 C.3       1 <1>        -0.421000 
      6 C           3.155808   -1.478332   -2.971508 C.ar      1 <1>         0.183600 
      7 C           4.145536   -2.380684   -3.362745 C.ar      1 <1>        -0.251000 
      8 C           4.135025   -2.967681   -4.637664 C.ar      1 <1>         0.187200 
      9 C           5.212239   -3.950555   -5.036126 C.3       1 <1>        -0.530800 
     10 C           3.106754   -2.626991   -5.516894 C.ar      1 <1>        -0.237800 
     11 C           2.098292   -1.720754   -5.153451 C.ar      1 <1>         0.190100 
     12 C           0.997411   -1.371875   -6.129034 C.3       1 <1>        -0.531200 
     13 C           2.135957   -1.153791   -3.879032 C.ar      1 <1>        -0.245300 
     14 N           0.947932   -0.206396   -0.923952 N.ar      1 <1>        -0.511600 
     15 C          -0.151748   -0.369292   -0.254209 C.ar      1 <1>         0.329200 
     16 S          -1.407572    0.865029   -0.526305 S.3       1 <1>         0.221200 
     17 C          -2.817352    0.287662    0.528901 C.3       1 <1>        -0.547800 
     18 C          -3.968367    1.247763    0.353105 C.ar      1 <1>         0.159800 
     19 C          -4.091653    2.367942    1.187361 C.ar      1 <1>        -0.171300 
     20 C          -5.145605    3.262548    1.027184 C.ar      1 <1>        -0.146900 
     21 C          -6.074412    3.024353    0.016923 C.ar      1 <1>         0.276300 
     22 N          -7.196279    3.963181   -0.156896 N.pl3     1 <1>         0.382200 
     23 O          -8.001698    3.727835   -1.056343 O.2       1 <1>        -0.389900 
     24 O          -7.258347    4.924278    0.608264 O.2       1 <1>        -0.389800 
     25 C          -5.977238    1.924506   -0.832506 C.ar      1 <1>        -0.147100 
     26 C          -4.916963    1.040298   -0.658493 C.ar      1 <1>        -0.170700 
     27 N          -0.343596   -1.402211    0.608129 N.ar      1 <1>        -0.652000 
     28 C           0.634566   -2.402379    0.850889 C.ar      1 <1>         0.576600 
     29 O           0.382040   -3.292722    1.654978 O.2       1 <1>        -0.528500 
     30 H           3.144329   -2.994215    2.436504 H         1 <1>         0.169100 
     31 H           4.306833   -2.054828    1.479927 H         1 <1>         0.140800 
     32 H           4.522495   -3.805340    1.671900 H         1 <1>         0.145500 
     33 H           3.562815   -3.334717   -0.597541 H         1 <1>         0.147500 
     34 H           2.428719   -4.239988    0.395927 H         1 <1>         0.169000 
     35 H           3.254550    0.248978   -1.688026 H         1 <1>         0.177000 
     36 H           4.091569   -1.170384   -1.059691 H         1 <1>         0.157400 
     37 H           4.949201   -2.627745   -2.670809 H         1 <1>         0.114300 
     38 H           5.135762   -4.882573   -4.461071 H         1 <1>         0.163000 
     39 H           5.143445   -4.210532   -6.097172 H         1 <1>         0.154600 
     40 H           6.214257   -3.543413   -4.854419 H         1 <1>         0.159500 
     41 H           3.088815   -3.071717   -6.510665 H         1 <1>         0.112400 
     42 H           1.405029   -1.002568   -7.078220 H         1 <1>         0.160100 
     43 H           0.380221   -2.248149   -6.365421 H         1 <1>         0.160500 
     44 H           0.336309   -0.598820   -5.725092 H         1 <1>         0.156600 
     45 H           1.366656   -0.446665   -3.579406 H         1 <1>         0.141500 
     46 H          -2.500639    0.264756    1.576462 H         1 <1>         0.197000 
     47 H          -3.111539   -0.719325    0.216998 H         1 <1>         0.198800 
     48 H          -3.357935    2.540748    1.969846 H         1 <1>         0.156000 
     49 H          -5.259156    4.129893    1.665456 H         1 <1>         0.191000 
     50 H          -6.721741    1.776985   -1.604941 H         1 <1>         0.190900 
     51 H          -4.825986    0.178783   -1.314214 H         1 <1>         0.156200 
     52 H          -1.195468   -1.517654    1.143748 H         1 <1>         0.350900 
@<TRIPOS>BOND
     1    5   35 1    
     2    5   36 1    
     3    5    6 1    
     4    4    5 1    
     5   20   49 1    
     6    1   31 1    
     7   19   48 1    
     8   22   24 2    
     9   14    4 ar   
    10   15   14 ar   
    11    7   37 1    
    12    6    7 ar   
    13    6   13 ar   
    14   19   20 ar   
    15   20   21 ar   
    16    4    3 ar   
    17   13   45 1    
    18   18   19 ar   
    19   16   15 1    
    20   17   16 1    
    21    7    8 ar   
    22    9   40 1    
    23   13   11 ar   
    24    1   30 1    
    25    1   32 1    
    26    2    1 1    
    27   15   27 ar   
    28   21   22 1    
    29   22   23 2    
    30   21   25 ar   
    31    8    9 1    
    32    8   10 ar   
    33   12   42 1    
    34    3    2 1    
    35    3   28 ar   
    36   11   10 ar   
    37   11   12 1    
    38   12   44 1    
    39   17   46 1    
    40    2   33 1    
    41   18   17 1    
    42   18   26 ar   
    43    9   39 1    
    44    9   38 1    
    45   10   41 1    
    46    2   34 1    
    47   17   47 1    
    48   12   43 1    
    49   27   28 ar   
    50   27   52 1    
    51   28   29 2    
    52   25   26 ar   
    53   25   50 1    
    54   26   51 1    
@<TRIPOS>SUBSTRUCTURE
     1 ****       24 TEMP              0 ****  ****    0 ROOT 
