#	Name:			WYP-2009-EJMC-1016-5L
#	Creating user name:	Administrator
#	Creation time:		Sun Jul 05 16:57:08 2020

#	Modifying user name:	Administrator
#	Modification time:	Sun Jul 05 16:57:59 2020

@<TRIPOS>MOLECULE
WYP-2009-EJMC-1016-5L
   46    48     1     0     0
SMALL
MULLIKEN_CHARGES
INVALID_CHARGES
Gaussian 16 #p B3LYP/6-31G* opt
@<TRIPOS>ATOM
      1 C           3.630251   -3.135428    1.688834 C.3       1 <1>        -0.448100 
      2 C           2.899119   -3.287050    0.341547 C.3       1 <1>        -0.326700 
      3 C           1.859811   -2.220614    0.099552 C.ar      1 <1>         0.048800 
      4 C           1.986320   -1.146847   -0.748962 C.ar      1 <1>         0.251100 
      5 C           3.221610   -0.870300   -1.603708 C.3       1 <1>        -0.440200 
      6 C           4.530946   -0.597141   -0.881275 C.ar      1 <1>         0.177700 
      7 C           5.619197   -1.466320   -1.054419 C.ar      1 <1>        -0.195500 
      8 C           6.850429   -1.246054   -0.439958 C.ar      1 <1>        -0.119500 
      9 C           7.027074   -0.127721    0.373824 C.ar      1 <1>        -0.130700 
     10 C           5.973215    0.766867    0.553935 C.ar      1 <1>        -0.142500 
     11 C           4.751076    0.528037   -0.073419 C.ar      1 <1>         0.022600 
     12 BR          3.368560    1.834233    0.185522 Br        1 <1>        -0.131400 
     13 N           0.973664   -0.228115   -0.961464 N.ar      1 <1>        -0.514600 
     14 C          -0.123678   -0.354786   -0.285440 C.ar      1 <1>         0.327700 
     15 S          -1.454812    0.815204   -0.453137 S.3       1 <1>         0.159600 
     16 C          -0.636750    2.049823   -1.567488 C.3       1 <1>        -0.499600 
     17 C          -1.530343    3.254965   -1.702695 C.ar      1 <1>         0.158500 
     18 C          -1.436946    4.316491   -0.790152 C.ar      1 <1>        -0.173300 
     19 C          -2.255429    5.435072   -0.909902 C.ar      1 <1>        -0.147500 
     20 C          -3.175653    5.479611   -1.955484 C.ar      1 <1>         0.275000 
     21 N          -4.043652    6.660688   -2.092374 N.pl3     1 <1>         0.381000 
     22 O          -3.914528    7.562853   -1.265633 O.2       1 <1>        -0.392000 
     23 O          -4.846054    6.674312   -3.025231 O.2       1 <1>        -0.392400 
     24 C          -3.297157    4.441976   -2.876797 C.ar      1 <1>        -0.146700 
     25 C          -2.469475    3.331205   -2.741672 C.ar      1 <1>        -0.176900 
     26 N          -0.334297   -1.368295    0.599357 N.ar      1 <1>        -0.650600 
     27 C           0.616611   -2.382663    0.848009 C.ar      1 <1>         0.583000 
     28 O           0.348034   -3.281413    1.636357 O.2       1 <1>        -0.523500 
     29 H           4.351223   -3.949657    1.824179 H         1 <1>         0.141300 
     30 H           2.913829   -3.175080    2.514115 H         1 <1>         0.173400 
     31 H           4.173786   -2.186661    1.741352 H         1 <1>         0.152500 
     32 H           2.388031   -4.257095    0.333975 H         1 <1>         0.166200 
     33 H           3.626448   -3.298688   -0.474779 H         1 <1>         0.131300 
     34 H           2.967822   -0.008163   -2.228292 H         1 <1>         0.188100 
     35 H           3.380037   -1.719718   -2.278954 H         1 <1>         0.167200 
     36 H           5.489884   -2.337204   -1.692306 H         1 <1>         0.137900 
     37 H           7.666392   -1.945206   -0.598234 H         1 <1>         0.140600 
     38 H           7.979192    0.057656    0.862537 H         1 <1>         0.143800 
     39 H           6.094595    1.650030    1.171364 H         1 <1>         0.157100 
     40 H           0.330530    2.293054   -1.123983 H         1 <1>         0.220500 
     41 H          -0.456186    1.565722   -2.528815 H         1 <1>         0.208200 
     42 H          -0.714914    4.265761    0.020078 H         1 <1>         0.155200 
     43 H          -2.192304    6.264898   -0.216973 H         1 <1>         0.188100 
     44 H          -4.024386    4.517842   -3.675665 H         1 <1>         0.187700 
     45 H          -2.550467    2.514198   -3.453384 H         1 <1>         0.153900 
     46 H          -1.196814   -1.444054    1.129458 H         1 <1>         0.353800 
@<TRIPOS>BOND
     1    1   30 1    
     2   19   43 1    
     3   10   39 1    
     4   18   42 1    
     5    1   31 1    
     6   26   46 1    
     7   27   28 2    
     8   21   22 2    
     9    1   29 1    
    10    2    1 1    
    11   18   19 ar   
    12   19   20 ar   
    13   11   12 1    
    14   17   18 ar   
    15   27   26 ar   
    16   14   26 ar   
    17   10    9 ar   
    18   11   10 ar   
    19    9   38 1    
    20    3   27 ar   
    21   14   15 1    
    22   15   16 1    
    23    8    9 ar   
    24   20   21 1    
    25   21   23 2    
    26    6   11 ar   
    27   13   14 ar   
    28   20   24 ar   
    29    3    2 1    
    30    4    3 ar   
    31   16   40 1    
    32    2   32 1    
    33    2   33 1    
    34   16   17 1    
    35   17   25 ar   
    36   16   41 1    
    37    4   13 ar   
    38    5    4 1    
    39    8   37 1    
    40    7    8 ar   
    41    6    7 ar   
    42    6    5 1    
    43   24   25 ar   
    44   24   44 1    
    45   25   45 1    
    46    7   36 1    
    47    5   34 1    
    48    5   35 1    
@<TRIPOS>SUBSTRUCTURE
     1 ****       39 TEMP              0 ****  ****    0 ROOT 
