#	Name:			WYP-2009-EJMC-1016-5X
#	Creating user name:	Administrator
#	Creation time:		Sun Jul 05 16:57:10 2020

#	Modifying user name:	Administrator
#	Modification time:	Sun Jul 05 16:57:59 2020

@<TRIPOS>MOLECULE
WYP-2009-EJMC-1016-5X
   54    57     1     0     0
SMALL
MULLIKEN_CHARGES
INVALID_CHARGES
Gaussian 16 #p B3LYP/6-31G* opt
@<TRIPOS>ATOM
      1 C           2.689024   -4.560509   -0.433167 C.3       1 <1>        -0.445700 
      2 C           2.925175   -3.259643    0.356285 C.3       1 <1>        -0.332200 
      3 C           1.861610   -2.216936    0.108975 C.ar      1 <1>         0.047500 
      4 C           1.976329   -1.160286   -0.762241 C.ar      1 <1>         0.204300 
      5 C           3.205812   -0.920972   -1.610961 C.3       1 <1>        -0.416200 
      6 C           4.278289   -0.028688   -0.992758 C.ar      1 <1>         0.127000 
      7 C           4.168499    0.463634    0.291392 C.ar      1 <1>        -0.195400 
      8 C           5.169459    1.289024    0.859163 C.ar      1 <1>        -0.135900 
      9 C           6.287292    1.622136    0.135341 C.ar      1 <1>        -0.190100 
     10 C           6.451864    1.141796   -1.191856 C.ar      1 <1>         0.137100 
     11 C           7.600888    1.472117   -1.958334 C.ar      1 <1>        -0.194100 
     12 C           7.757912    1.004511   -3.243301 C.ar      1 <1>        -0.132900 
     13 C           6.762967    0.180959   -3.818024 C.ar      1 <1>        -0.133400 
     14 C           5.635687   -0.157605   -3.100558 C.ar      1 <1>        -0.196900 
     15 C           5.438433    0.306082   -1.770367 C.ar      1 <1>         0.072300 
     16 N           0.985065   -0.213917   -0.955754 N.ar      1 <1>        -0.507600 
     17 C          -0.119949   -0.346549   -0.285681 C.ar      1 <1>         0.323900 
     18 S          -1.460178    0.808106   -0.447390 S.3       1 <1>         0.148600 
     19 C          -0.747535    1.986006   -1.696192 C.3       1 <1>        -0.489800 
     20 C          -1.750514    3.069673   -1.983854 C.ar      1 <1>         0.138700 
     21 C          -2.720691    2.907917   -2.986854 C.ar      1 <1>        -0.167500 
     22 C          -3.646200    3.905528   -3.257913 C.ar      1 <1>        -0.171100 
     23 C          -3.627731    5.101336   -2.523197 C.ar      1 <1>         0.378600 
     24 O          -4.574628    6.019997   -2.865825 O.3       1 <1>        -0.504100 
     25 C          -4.608579    7.249043   -2.156615 C.3       1 <1>        -0.217400 
     26 C          -2.670043    5.279573   -1.517666 C.ar      1 <1>        -0.194300 
     27 C          -1.746683    4.264356   -1.258865 C.ar      1 <1>        -0.173900 
     28 N          -0.334381   -1.374071    0.585652 N.ar      1 <1>        -0.650200 
     29 C           0.617124   -2.384245    0.849170 C.ar      1 <1>         0.577600 
     30 O           0.346036   -3.279632    1.641541 O.2       1 <1>        -0.527600 
     31 H           2.700705   -4.380193   -1.514606 H         1 <1>         0.138400 
     32 H           1.720281   -4.995106   -0.168712 H         1 <1>         0.171400 
     33 H           3.467178   -5.297409   -0.203692 H         1 <1>         0.145400 
     34 H           3.914757   -2.852331    0.126884 H         1 <1>         0.147100 
     35 H           2.918423   -3.497957    1.425814 H         1 <1>         0.168400 
     36 H           2.856262   -0.459623   -2.542278 H         1 <1>         0.175900 
     37 H           3.654382   -1.881873   -1.889094 H         1 <1>         0.168000 
     38 H           3.296621    0.215359    0.887907 H         1 <1>         0.131900 
     39 H           5.042994    1.654911    1.874561 H         1 <1>         0.130000 
     40 H           7.060740    2.254641    0.564373 H         1 <1>         0.127900 
     41 H           8.360381    2.106152   -1.506576 H         1 <1>         0.129600 
     42 H           8.642923    1.265428   -3.817325 H         1 <1>         0.129800 
     43 H           6.888463   -0.187104   -4.832788 H         1 <1>         0.129200 
     44 H           4.885996   -0.790509   -3.563922 H         1 <1>         0.131600 
     45 H          -0.499088    1.401508   -2.583852 H         1 <1>         0.202900 
     46 H           0.181023    2.377734   -1.277474 H         1 <1>         0.206300 
     47 H          -2.746441    1.986746   -3.564154 H         1 <1>         0.136700 
     48 H          -4.393614    3.786443   -4.035855 H         1 <1>         0.143300 
     49 H          -3.673922    7.811728   -2.279611 H         1 <1>         0.154100 
     50 H          -4.797336    7.092032   -1.086442 H         1 <1>         0.154700 
     51 H          -5.432551    7.820087   -2.588037 H         1 <1>         0.173000 
     52 H          -2.631009    6.194428   -0.937691 H         1 <1>         0.136000 
     53 H          -1.006616    4.413249   -0.476061 H         1 <1>         0.136300 
     54 H          -1.210789   -1.464584    1.089964 H         1 <1>         0.352200 
@<TRIPOS>BOND
     1   13   43 1    
     2   14   44 1    
     3   21   47 1    
     4   22   48 1    
     5    1   31 1    
     6   14   13 ar   
     7   13   12 ar   
     8   15   14 ar   
     9    5   36 1    
    10   21   22 ar   
    11   20   21 ar   
    12    5   37 1    
    13   22   23 ar   
    14   19   45 1    
    15    1   32 1    
    16   12   42 1    
    17    1   33 1    
    18    2    1 1    
    19   12   11 ar   
    20    4    5 1    
    21    5    6 1    
    22   23   24 1    
    23   24   25 1    
    24   19   20 1    
    25   18   19 1    
    26   19   46 1    
    27   16    4 ar   
    28    4    3 ar   
    29   20   27 ar   
    30   17   16 ar   
    31   23   26 ar   
    32    6   15 ar   
    33   15   10 ar   
    34    3    2 1    
    35    2   34 1    
    36    2   35 1    
    37    3   29 ar   
    38   17   18 1    
    39   17   28 ar   
    40    6    7 ar   
    41   11   10 ar   
    42   11   41 1    
    43   29   28 ar   
    44   29   30 2    
    45   25   51 1    
    46   28   54 1    
    47   25   49 1    
    48   25   50 1    
    49   10    9 ar   
    50   27   26 ar   
    51   27   53 1    
    52   26   52 1    
    53    7   38 1    
    54    7    8 ar   
    55    9    8 ar   
    56    9   40 1    
    57    8   39 1    
@<TRIPOS>SUBSTRUCTURE
     1 ****       31 TEMP              0 ****  ****    0 ROOT 
