#	Name:			WYP-2008-BMC-3887-5E
#	Creating user name:	Administrator
#	Creation time:		Sun Jul 05 16:57:01 2020

#	Modifying user name:	Administrator
#	Modification time:	Sun Jul 05 16:57:59 2020

@<TRIPOS>MOLECULE
WYP-2008-BMC-3887-5E
   53    55     1     0     0
SMALL
MULLIKEN_CHARGES
INVALID_CHARGES
Gaussian 16 #p B3LYP/6-31G* opt
@<TRIPOS>ATOM
      1 C          -5.564496    7.634257    0.541803 C.3       1 <1>        -0.221800 
      2 O          -5.529440    6.395774   -0.157328 O.3       1 <1>        -0.498800 
      3 C          -4.346657    5.739158   -0.260319 C.ar      1 <1>         0.389100 
      4 C          -3.131356    6.194983    0.276077 C.ar      1 <1>        -0.194200 
      5 C          -1.980805    5.434167    0.106307 C.ar      1 <1>        -0.166300 
      6 C          -2.002797    4.216960   -0.591351 C.ar      1 <1>         0.081200 
      7 C          -0.728176    3.464589   -0.729934 C.2       1 <1>         0.415600 
      8 O           0.322991    3.888163   -0.272802 O.2       1 <1>        -0.453700 
      9 C          -0.727372    2.124223   -1.472111 C.3       1 <1>        -0.550000 
     10 S          -1.480707    0.792226   -0.444549 S.3       1 <1>         0.157700 
     11 C          -0.108194   -0.341850   -0.284787 C.ar      1 <1>         0.341600 
     12 N           0.993923   -0.212232   -0.952365 N.ar      1 <1>        -0.514600 
     13 C           1.986411   -1.155903   -0.753710 C.ar      1 <1>         0.244600 
     14 C           3.240552   -0.916083   -1.571441 C.3       1 <1>        -0.414500 
     15 C           3.248996   -1.658370   -2.903329 C.ar      1 <1>         0.184000 
     16 C           2.235694   -1.437775   -3.848662 C.ar      1 <1>        -0.241900 
     17 C           2.239581   -2.097376   -5.078173 C.ar      1 <1>         0.190700 
     18 C           1.141115   -1.865638   -6.090541 C.3       1 <1>        -0.530200 
     19 C           3.285009   -2.991318   -5.358352 C.ar      1 <1>        -0.238300 
     20 C           4.307149   -3.231362   -4.439901 C.ar      1 <1>         0.187900 
     21 C           5.425846   -4.200129   -4.748766 C.3       1 <1>        -0.530600 
     22 C           4.273922   -2.553844   -3.210856 C.ar      1 <1>        -0.252700 
     23 C           1.853279   -2.231336    0.090741 C.ar      1 <1>         0.061600 
     24 C           2.917719   -3.275509    0.303039 C.3       1 <1>        -0.548500 
     25 C           0.617110   -2.386507    0.845497 C.ar      1 <1>         0.573100 
     26 O           0.336712   -3.269657    1.646327 O.2       1 <1>        -0.524500 
     27 N          -0.326879   -1.362271    0.587118 N.ar      1 <1>        -0.652600 
     28 C          -3.229676    3.775876   -1.123450 C.ar      1 <1>        -0.185700 
     29 C          -4.386216    4.522465   -0.961305 C.ar      1 <1>        -0.178300 
     30 H          -4.918363    8.381956    0.065061 H         1 <1>         0.159900 
     31 H          -6.601491    7.970229    0.496950 H         1 <1>         0.177800 
     32 H          -5.266714    7.510723    1.590566 H         1 <1>         0.160600 
     33 H          -3.078568    7.130316    0.821086 H         1 <1>         0.142600 
     34 H          -1.034106    5.771241    0.515748 H         1 <1>         0.169400 
     35 H           0.305560    1.817242   -1.648520 H         1 <1>         0.252100 
     36 H          -1.269337    2.167753   -2.420100 H         1 <1>         0.195400 
     37 H           4.121797   -1.209126   -0.992058 H         1 <1>         0.155400 
     38 H           3.310109    0.162768   -1.750076 H         1 <1>         0.176700 
     39 H           1.436140   -0.739262   -3.614900 H         1 <1>         0.132000 
     40 H           1.550295   -1.614930   -7.076659 H         1 <1>         0.158900 
     41 H           0.521351   -2.762489   -6.219379 H         1 <1>         0.163000 
     42 H           0.480551   -1.048672   -5.783273 H         1 <1>         0.153300 
     43 H           3.299942   -3.507771   -6.316837 H         1 <1>         0.112400 
     44 H           5.402287   -5.066429   -4.075304 H         1 <1>         0.162900 
     45 H           5.357148   -4.575941   -5.774562 H         1 <1>         0.154300 
     46 H           6.409091   -3.728706   -4.629563 H         1 <1>         0.160300 
     47 H           5.070231   -2.723771   -2.487939 H         1 <1>         0.115400 
     48 H           2.519223   -4.074268    0.931875 H         1 <1>         0.193000 
     49 H           3.800269   -2.858979    0.806513 H         1 <1>         0.160000 
     50 H           3.253145   -3.707083   -0.646129 H         1 <1>         0.169700 
     51 H          -1.187074   -1.426643    1.122359 H         1 <1>         0.354400 
     52 H          -3.291829    2.839868   -1.670778 H         1 <1>         0.142500 
     53 H          -5.335830    4.189279   -1.367283 H         1 <1>         0.148400 
@<TRIPOS>BOND
     1    5   34 1    
     2    7    8 2    
     3   14   37 1    
     4   14   38 1    
     5    4   33 1    
     6   22   47 1    
     7   21   46 1    
     8   14   15 1    
     9   13   14 1    
    10    5    4 ar   
    11    6    5 ar   
    12   24   49 1    
    13    7    6 1    
    14    9    7 1    
    15    4    3 ar   
    16   15   22 ar   
    17   22   20 ar   
    18    1   30 1    
    19   15   16 ar   
    20    9   35 1    
    21   12   13 ar   
    22   13   23 ar   
    23    6   28 ar   
    24   20   21 1    
    25   21   44 1    
    26   21   45 1    
    27    1   32 1    
    28   24   50 1    
    29   23   24 1    
    30   24   48 1    
    31   20   19 ar   
    32   11   12 ar   
    33    9   36 1    
    34   10    9 1    
    35   23   25 ar   
    36    1   31 1    
    37    2    1 1    
    38   16   39 1    
    39   16   17 ar   
    40    3    2 1    
    41    3   29 ar   
    42   11   10 1    
    43   11   27 ar   
    44   19   17 ar   
    45   19   43 1    
    46   25   27 ar   
    47   25   26 2    
    48   28   29 ar   
    49   28   52 1    
    50   17   18 1    
    51   27   51 1    
    52   29   53 1    
    53   18   40 1    
    54   18   42 1    
    55   18   41 1    
@<TRIPOS>SUBSTRUCTURE
     1 ****       49 TEMP              0 ****  ****    0 ROOT 
