#	Name:			WYP-2009-EJMC-1016-5W
#	Creating user name:	Administrator
#	Creation time:		Sun Jul 05 16:57:10 2020

#	Modifying user name:	Administrator
#	Modification time:	Sun Jul 05 16:57:59 2020

@<TRIPOS>MOLECULE
WYP-2009-EJMC-1016-5W
   46    48     1     0     0
SMALL
MULLIKEN_CHARGES
INVALID_CHARGES
Gaussian 16 #p B3LYP/6-31G* opt
@<TRIPOS>ATOM
      1 C           3.659561   -3.196340    1.603345 C.3       1 <1>        -0.449500 
      2 C           2.891680   -3.305024    0.272616 C.3       1 <1>        -0.336400 
      3 C           1.857105   -2.222842    0.081831 C.ar      1 <1>         0.060100 
      4 C           1.955810   -1.140450   -0.762378 C.ar      1 <1>         0.235600 
      5 C           3.145067   -0.855991   -1.678672 C.3       1 <1>        -0.446200 
      6 C           4.530893   -0.788326   -1.062750 C.ar      1 <1>         0.200800 
      7 C           4.864472    0.168115   -0.084069 C.ar      1 <1>        -0.134700 
      8 CL          3.651939    1.319049    0.460902 Cl        1 <1>         0.002400 
      9 C           6.136634    0.274532    0.474496 C.ar      1 <1>        -0.120500 
     10 C           7.144021   -0.585521    0.046235 C.ar      1 <1>        -0.125100 
     11 C           6.876873   -1.530136   -0.939628 C.ar      1 <1>        -0.118200 
     12 C           5.593161   -1.614152   -1.477939 C.ar      1 <1>        -0.145000 
     13 CL          5.353412   -2.825375   -2.741071 Cl        1 <1>        -0.010400 
     14 N           0.947103   -0.208961   -0.920640 N.ar      1 <1>        -0.508300 
     15 C          -0.146773   -0.364826   -0.244205 C.ar      1 <1>         0.329000 
     16 S          -1.412361    0.858121   -0.537265 S.3       1 <1>         0.203800 
     17 C          -2.567039    0.671826    0.891152 C.3       1 <1>        -0.555800 
     18 C          -3.486950   -0.531870    0.886990 C.ar      1 <1>         0.165100 
     19 C          -4.248290   -0.863814   -0.245020 C.ar      1 <1>        -0.173000 
     20 C          -5.122883   -1.943575   -0.222394 C.ar      1 <1>        -0.146400 
     21 C          -5.227610   -2.699630    0.945262 C.ar      1 <1>         0.274700 
     22 N          -6.154254   -3.844462    0.974627 N.pl3     1 <1>         0.383300 
     23 O          -6.792374   -4.085779   -0.048943 O.2       1 <1>        -0.389600 
     24 O          -6.234483   -4.485331    2.021282 O.2       1 <1>        -0.388400 
     25 C          -4.483726   -2.404198    2.082213 C.ar      1 <1>        -0.135300 
     26 C          -3.614470   -1.314222    2.044466 C.ar      1 <1>        -0.210200 
     27 N          -0.340604   -1.393236    0.622323 N.ar      1 <1>        -0.650800 
     28 C           0.633740   -2.394250    0.855136 C.ar      1 <1>         0.576800 
     29 O           0.377636   -3.301085    1.639471 O.2       1 <1>        -0.526000 
     30 H           4.223706   -2.259847    1.663836 H         1 <1>         0.146800 
     31 H           2.965417   -3.240504    2.447261 H         1 <1>         0.171300 
     32 H           4.367653   -4.027030    1.700987 H         1 <1>         0.143400 
     33 H           2.366598   -4.267616    0.258532 H         1 <1>         0.166600 
     34 H           3.592355   -3.313892   -0.565023 H         1 <1>         0.151400 
     35 H           2.925958    0.104949   -2.154354 H         1 <1>         0.201200 
     36 H           3.151058   -1.605053   -2.475011 H         1 <1>         0.194400 
     37 H           6.327611    1.029815    1.228623 H         1 <1>         0.161600 
     38 H           8.139428   -0.513184    0.473933 H         1 <1>         0.151400 
     39 H           7.651121   -2.199498   -1.296825 H         1 <1>         0.162100 
     40 H          -1.995502    0.727102    1.822366 H         1 <1>         0.201300 
     41 H          -3.156004    1.594390    0.829706 H         1 <1>         0.218000 
     42 H          -4.145862   -0.276157   -1.152399 H         1 <1>         0.166800 
     43 H          -5.719324   -2.210544   -1.086040 H         1 <1>         0.191900 
     44 H          -4.588167   -3.018319    2.968002 H         1 <1>         0.195200 
     45 H          -3.036513   -1.067264    2.931760 H         1 <1>         0.158800 
     46 H          -1.228978   -1.555260    1.084798 H         1 <1>         0.355900 
@<TRIPOS>BOND
     1   20   43 1    
     2    5   36 1    
     3   12   13 1    
     4   19   42 1    
     5    5   35 1    
     6    4    5 1    
     7    5    6 1    
     8   22   23 2    
     9   19   20 ar   
    10   20   21 ar   
    11   18   19 ar   
    12   15   16 1    
    13   16   17 1    
    14    4   14 ar   
    15   14   15 ar   
    16    6   12 ar   
    17   12   11 ar   
    18    3    4 ar   
    19    6    7 ar   
    20   15   27 ar   
    21   11   39 1    
    22   21   22 1    
    23   22   24 2    
    24    2   34 1    
    25   21   25 ar   
    26   11   10 ar   
    27   17   41 1    
    28   17   18 1    
    29   18   26 ar   
    30    3    2 1    
    31    3   28 ar   
    32   17   40 1    
    33   27   46 1    
    34   27   28 ar   
    35    7    8 1    
    36    7    9 ar   
    37    2   33 1    
    38    2    1 1    
    39   28   29 2    
    40   10    9 ar   
    41   10   38 1    
    42   25   26 ar   
    43   25   44 1    
    44    9   37 1    
    45   26   45 1    
    46    1   30 1    
    47    1   32 1    
    48    1   31 1    
@<TRIPOS>SUBSTRUCTURE
     1 ****       23 TEMP              0 ****  ****    0 ROOT 
