#	Name:			WYP-2009-EJMC-1016-5S
#	Creating user name:	Administrator
#	Creation time:		Sun Jul 05 16:57:10 2020

#	Modifying user name:	Administrator
#	Modification time:	Sun Jul 05 16:57:59 2020

@<TRIPOS>MOLECULE
WYP-2009-EJMC-1016-5S
   50    52     1     0     0
SMALL
MULLIKEN_CHARGES
INVALID_CHARGES
Gaussian 16 #p B3LYP/6-31G* opt
@<TRIPOS>ATOM
      1 C           2.724255   -4.528461   -0.480188 C.3       1 <1>        -0.445700 
      2 C           2.941957   -3.238234    0.331853 C.3       1 <1>        -0.334900 
      3 C           1.863658   -2.206732    0.104072 C.ar      1 <1>         0.049500 
      4 C           1.948530   -1.149985   -0.772828 C.ar      1 <1>         0.227500 
      5 C           3.166482   -0.884634   -1.640375 C.3       1 <1>        -0.419500 
      6 C           4.203977    0.013919   -0.977033 C.ar      1 <1>         0.183500 
      7 C           3.865433    1.313570   -0.569802 C.ar      1 <1>        -0.246100 
      8 C           4.809362    2.150409    0.026609 C.ar      1 <1>         0.189900 
      9 C           4.441226    3.548631    0.468582 C.3       1 <1>        -0.531000 
     10 C           6.114716    1.668799    0.212093 C.ar      1 <1>        -0.238300 
     11 C           6.482020    0.382501   -0.183991 C.ar      1 <1>         0.187400 
     12 C           7.888481   -0.130068    0.027496 C.3       1 <1>        -0.530500 
     13 C           5.510200   -0.435698   -0.780868 C.ar      1 <1>        -0.251300 
     14 N           0.948664   -0.209630   -0.929608 N.ar      1 <1>        -0.508700 
     15 C          -0.145629   -0.363296   -0.246719 C.ar      1 <1>         0.325800 
     16 S          -1.409051    0.862741   -0.523766 S.3       1 <1>         0.187800 
     17 C          -2.526527    0.714192    0.944134 C.3       1 <1>        -0.547000 
     18 C          -3.432260   -0.497530    1.008521 C.ar      1 <1>         0.145400 
     19 C          -3.466734   -1.281387    2.170035 C.ar      1 <1>        -0.200000 
     20 C          -4.319269   -2.385580    2.261535 C.ar      1 <1>        -0.116000 
     21 C          -5.150253   -2.714440    1.192532 C.ar      1 <1>        -0.126300 
     22 C          -5.124189   -1.936974    0.030498 C.ar      1 <1>        -0.128000 
     23 C          -4.270709   -0.840298   -0.062620 C.ar      1 <1>        -0.160400 
     24 N          -0.344991   -1.400692    0.607928 N.ar      1 <1>        -0.651900 
     25 C           0.632982   -2.395923    0.855490 C.ar      1 <1>         0.573000 
     26 O           0.377493   -3.304014    1.639704 O.2       1 <1>        -0.531600 
     27 H           1.761581   -4.980741   -0.223165 H         1 <1>         0.170100 
     28 H           2.732225   -4.329690   -1.558421 H         1 <1>         0.139500 
     29 H           3.512157   -5.259215   -0.263820 H         1 <1>         0.142400 
     30 H           2.939340   -3.494952    1.397071 H         1 <1>         0.166800 
     31 H           3.924624   -2.812096    0.109346 H         1 <1>         0.145000 
     32 H           2.802910   -0.406692   -2.557127 H         1 <1>         0.175000 
     33 H           3.636927   -1.828424   -1.929951 H         1 <1>         0.155500 
     34 H           2.849505    1.667682   -0.725144 H         1 <1>         0.145000 
     35 H           4.512847    3.655034    1.558822 H         1 <1>         0.159700 
     36 H           3.417497    3.802450    0.176698 H         1 <1>         0.157100 
     37 H           5.111623    4.297813    0.029539 H         1 <1>         0.158100 
     38 H           6.859745    2.315770    0.672788 H         1 <1>         0.110500 
     39 H           8.310895   -0.537867   -0.898870 H         1 <1>         0.158600 
     40 H           8.554854    0.664309    0.378417 H         1 <1>         0.153400 
     41 H           7.912696   -0.935940    0.772570 H         1 <1>         0.162400 
     42 H           5.786017   -1.437854   -1.105565 H         1 <1>         0.113300 
     43 H          -1.924032    0.804087    1.852967 H         1 <1>         0.196000 
     44 H          -3.117798    1.633768    0.865005 H         1 <1>         0.208100 
     45 H          -2.828449   -1.024353    3.013141 H         1 <1>         0.142700 
     46 H          -4.326772   -2.985393    3.167138 H         1 <1>         0.145400 
     47 H          -5.812068   -3.573315    1.259269 H         1 <1>         0.140700 
     48 H          -5.768322   -2.189867   -0.807230 H         1 <1>         0.141100 
     49 H          -4.243816   -0.249250   -0.974178 H         1 <1>         0.147800 
     50 H          -1.242291   -1.562835    1.056242 H         1 <1>         0.363300 
@<TRIPOS>BOND
     1   19   45 1    
     2   20   46 1    
     3    9   35 1    
     4   19   20 ar   
     5   18   19 ar   
     6   17   43 1    
     7   20   21 ar   
     8   12   41 1    
     9   10   38 1    
    10    2   30 1    
    11   25   26 2    
    12   12   40 1    
    13    9   37 1    
    14    9   36 1    
    15    8    9 1    
    16    8   10 ar   
    17   11   10 ar   
    18   11   12 1    
    19   12   39 1    
    20   24   50 1    
    21   25   24 ar   
    22    3   25 ar   
    23   17   44 1    
    24   17   18 1    
    25   16   17 1    
    26    7    8 ar   
    27   18   23 ar   
    28   13   11 ar   
    29   15   24 ar   
    30    2   31 1    
    31    3    2 1    
    32    2    1 1    
    33   21   47 1    
    34   22   21 ar   
    35    4    3 ar   
    36    7   34 1    
    37    6    7 ar   
    38    1   29 1    
    39    6   13 ar   
    40   13   42 1    
    41   15   16 1    
    42   14   15 ar   
    43    1   27 1    
    44    1   28 1    
    45    5    6 1    
    46   23   22 ar   
    47   23   49 1    
    48    4   14 ar   
    49    4    5 1    
    50   22   48 1    
    51    5   33 1    
    52    5   32 1    
@<TRIPOS>SUBSTRUCTURE
     1 ****       30 TEMP              0 ****  ****    0 ROOT 
