#	Name:			WYP-2008-BMC-3887-5Q
#	Creating user name:	Administrator
#	Creation time:		Sun Jul 05 16:57:03 2020

#	Modifying user name:	Administrator
#	Modification time:	Sun Jul 05 16:57:59 2020

@<TRIPOS>MOLECULE
WYP-2008-BMC-3887-5Q
   60    63     1     0     0
SMALL
MULLIKEN_CHARGES
INVALID_CHARGES
Gaussian 16 #p B3LYP/6-31G* opt
@<TRIPOS>ATOM
      1 C           2.444206   -4.711624   -0.242704 C.3       1 <1>        -0.457600 
      2 C           2.872015   -3.328558    0.286468 C.3       1 <1>        -0.331500 
      3 C           1.850039   -2.236264    0.061145 C.ar      1 <1>         0.050900 
      4 C           1.963110   -1.139731   -0.766352 C.ar      1 <1>         0.190200 
      5 C           3.159422   -0.754092   -1.649972 C.3       1 <1>        -0.302500 
      6 C           3.068337   -1.320367   -3.070851 C.ar      1 <1>         0.144500 
      7 C           3.740975   -0.644662   -4.101825 C.ar      1 <1>        -0.167600 
      8 C           3.695099   -1.105899   -5.415623 C.ar      1 <1>        -0.131100 
      9 C           2.964491   -2.254909   -5.729695 C.ar      1 <1>        -0.127900 
     10 C           2.282794   -2.928560   -4.718035 C.ar      1 <1>        -0.136600 
     11 C           2.334094   -2.463830   -3.400590 C.ar      1 <1>        -0.174700 
     12 C           4.538931   -0.896402   -0.991288 C.ar      1 <1>         0.152500 
     13 C           4.794440   -0.169364    0.181812 C.ar      1 <1>        -0.170400 
     14 C           6.037570   -0.228839    0.808419 C.ar      1 <1>        -0.130500 
     15 C           7.058446   -1.014906    0.267963 C.ar      1 <1>        -0.128900 
     16 C           6.819861   -1.734969   -0.901649 C.ar      1 <1>        -0.129600 
     17 C           5.571584   -1.674546   -1.527397 C.ar      1 <1>        -0.190000 
     18 N           0.955224   -0.195859   -0.895689 N.ar      1 <1>        -0.509400 
     19 C          -0.146642   -0.371953   -0.236898 C.ar      1 <1>         0.316000 
     20 S          -1.408387    0.861088   -0.543080 S.3       1 <1>         0.198200 
     21 C          -2.467530    0.796691    0.968631 C.3       1 <1>        -0.565600 
     22 C          -3.508107   -0.318905    0.917388 C.2       1 <1>         0.427400 
     23 O          -3.159636   -1.450339    1.257682 O.2       1 <1>        -0.477900 
     24 C          -4.886248   -0.049471    0.458899 C.ar      1 <1>         0.083800 
     25 C          -5.815984   -1.111911    0.492801 C.ar      1 <1>        -0.156700 
     26 C          -7.119309   -0.931145    0.075345 C.ar      1 <1>        -0.170800 
     27 C          -7.538764    0.325396   -0.402953 C.ar      1 <1>         0.392300 
     28 O          -8.833551    0.401163   -0.790332 O.3       1 <1>        -0.494000 
     29 C          -9.329049    1.637637   -1.292771 C.3       1 <1>        -0.223900 
     30 C          -6.628445    1.391316   -0.451859 C.ar      1 <1>        -0.199500 
     31 C          -5.318823    1.196386   -0.019802 C.ar      1 <1>        -0.184500 
     32 N          -0.362525   -1.409774    0.606877 N.ar      1 <1>        -0.662100 
     33 C           0.624198   -2.392324    0.848450 C.ar      1 <1>         0.572800 
     34 O           0.396639   -3.282712    1.659821 O.2       1 <1>        -0.521800 
     35 H           1.495282   -5.022129    0.200902 H         1 <1>         0.178200 
     36 H           3.203150   -5.458539    0.017476 H         1 <1>         0.140400 
     37 H           2.341773   -4.711138   -1.333412 H         1 <1>         0.139600 
     38 H           3.026978   -3.415274    1.369490 H         1 <1>         0.160700 
     39 H           3.829379   -3.053343   -0.153450 H         1 <1>         0.162000 
     40 H           3.013392    0.326073   -1.771604 H         1 <1>         0.181200 
     41 H           4.309746    0.252199   -3.866412 H         1 <1>         0.131200 
     42 H           4.223757   -0.564208   -6.195876 H         1 <1>         0.128300 
     43 H           2.922916   -2.615117   -6.754235 H         1 <1>         0.126900 
     44 H           1.702404   -3.818021   -4.949273 H         1 <1>         0.129500 
     45 H           1.780726   -2.988730   -2.629624 H         1 <1>         0.139700 
     46 H           4.006455    0.447935    0.607546 H         1 <1>         0.131800 
     47 H           6.211161    0.342465    1.716819 H         1 <1>         0.128500 
     48 H           8.029663   -1.061639    0.753329 H         1 <1>         0.127200 
     49 H           7.605873   -2.348873   -1.334133 H         1 <1>         0.129000 
     50 H           5.401367   -2.240146   -2.437784 H         1 <1>         0.144800 
     51 H          -2.904019    1.793684    1.045426 H         1 <1>         0.200200 
     52 H          -1.831245    0.640020    1.843166 H         1 <1>         0.218100 
     53 H          -5.480785   -2.077144    0.856992 H         1 <1>         0.176300 
     54 H          -7.841187   -1.741009    0.101407 H         1 <1>         0.155000 
     55 H         -10.376566    1.458298   -1.538015 H         1 <1>         0.181700 
     56 H          -8.789907    1.945488   -2.197097 H         1 <1>         0.162700 
     57 H          -9.261621    2.430810   -0.537901 H         1 <1>         0.161000 
     58 H          -6.927496    2.364686   -0.821870 H         1 <1>         0.144500 
     59 H          -4.634867    2.036786   -0.078313 H         1 <1>         0.142400 
     60 H          -1.276906   -1.568844    1.047336 H         1 <1>         0.395500 
@<TRIPOS>BOND
     1   14   47 1    
     2   21   51 1    
     3   13   46 1    
     4   31   59 1    
     5   13   14 ar   
     6   14   15 ar   
     7   30   58 1    
     8    7   41 1    
     9    5   40 1    
    10   12   13 ar   
    11   29   57 1    
    12   15   48 1    
    13   21   20 1    
    14   20   19 1    
    15   21   52 1    
    16   16   15 ar   
    17   22   21 1    
    18   30   31 ar   
    19   31   24 ar   
    20   29   56 1    
    21   27   30 ar   
    22   19   18 ar   
    23   18    4 ar   
    24    5   12 1    
    25   12   17 ar   
    26    8   42 1    
    27    7    8 ar   
    28    6    7 ar   
    29    4    5 1    
    30    5    6 1    
    31   29   55 1    
    32   28   29 1    
    33   19   32 ar   
    34   17   16 ar   
    35   16   49 1    
    36   17   50 1    
    37    8    9 ar   
    38    4    3 ar   
    39    6   11 ar   
    40   24   22 1    
    41   22   23 2    
    42   24   25 ar   
    43   27   28 1    
    44   27   26 ar   
    45   32   60 1    
    46   32   33 ar   
    47    3   33 ar   
    48    3    2 1    
    49    9   43 1    
    50    9   10 ar   
    51   33   34 2    
    52   25   26 ar   
    53   25   53 1    
    54   11   10 ar   
    55   11   45 1    
    56    2   39 1    
    57   26   54 1    
    58    2   38 1    
    59    2    1 1    
    60   10   44 1    
    61    1   37 1    
    62    1   35 1    
    63    1   36 1    
@<TRIPOS>SUBSTRUCTURE
     1 ****       47 TEMP              0 ****  ****    0 ROOT 
