#	Name:			WYP-2009-EJMC-1016-5J
#	Creating user name:	Administrator
#	Creation time:		Sun Jul 05 16:57:08 2020

#	Modifying user name:	Administrator
#	Modification time:	Sun Jul 05 16:57:59 2020

@<TRIPOS>MOLECULE
WYP-2009-EJMC-1016-5J
   49    51     1     0     0
SMALL
MULLIKEN_CHARGES
INVALID_CHARGES
Gaussian 16 #p B3LYP/6-31G* opt
@<TRIPOS>ATOM
      1 C           2.940388   -3.245941    0.350698 C.3       1 <1>        -0.550700 
      2 C           1.864319   -2.219992    0.108773 C.ar      1 <1>         0.065500 
      3 C           1.982555   -1.161120   -0.755936 C.ar      1 <1>         0.236300 
      4 C           3.245186   -0.914680   -1.560448 C.3       1 <1>        -0.414900 
      5 C           4.280006   -0.077167   -0.820409 C.ar      1 <1>         0.163300 
      6 C           5.578237   -0.554498   -0.623950 C.ar      1 <1>        -0.215400 
      7 C           6.532808    0.222578    0.039220 C.ar      1 <1>        -0.012000 
      8 C           7.941642   -0.294267    0.176731 C.3       1 <1>         0.793100 
      9 F           7.963498   -1.632726    0.362920 F         1 <1>        -0.268300 
     10 F           8.587671    0.274465    1.215735 F         1 <1>        -0.265700 
     11 F           8.671514   -0.040570   -0.933497 F         1 <1>        -0.257400 
     12 C           6.203347    1.487190    0.520163 C.ar      1 <1>        -0.195500 
     13 C           4.906736    1.967926    0.328390 C.ar      1 <1>        -0.012100 
     14 C           4.515279    3.308307    0.895412 C.3       1 <1>         0.792700 
     15 F           5.567080    4.151710    0.961597 F         1 <1>        -0.266200 
     16 F           3.558396    3.905591    0.150336 F         1 <1>        -0.270500 
     17 F           4.021482    3.190808    2.148884 F         1 <1>        -0.256700 
     18 C           3.954386    1.196238   -0.335856 C.ar      1 <1>        -0.197900 
     19 N           0.991003   -0.216781   -0.962758 N.ar      1 <1>        -0.533000 
     20 C          -0.117818   -0.348471   -0.296712 C.ar      1 <1>         0.345500 
     21 S          -1.470382    0.803782   -0.424742 S.3       1 <1>         0.172800 
     22 C          -0.879918    1.928298   -1.773162 C.3       1 <1>        -0.540400 
     23 C          -1.444236    1.596617   -3.130257 C.ar      1 <1>         0.200300 
     24 C          -0.861513    0.590838   -3.917259 C.ar      1 <1>        -0.188100 
     25 C          -1.375391    0.282586   -5.172114 C.ar      1 <1>        -0.146400 
     26 C          -2.482352    0.992203   -5.635439 C.ar      1 <1>         0.274700 
     27 N          -3.030343    0.673620   -6.963781 N.pl3     1 <1>         0.381000 
     28 O          -2.478038   -0.215760   -7.610452 O.2       1 <1>        -0.392400 
     29 O          -4.007532    1.315710   -7.347247 O.2       1 <1>        -0.392500 
     30 C          -3.082939    1.996396   -4.880424 C.ar      1 <1>        -0.144800 
     31 C          -2.555468    2.292249   -3.626556 C.ar      1 <1>        -0.190500 
     32 N          -0.334042   -1.372675    0.570360 N.ar      1 <1>        -0.652200 
     33 C           0.618532   -2.383688    0.849941 C.ar      1 <1>         0.576800 
     34 O           0.337487   -3.268584    1.645348 O.2       1 <1>        -0.512500 
     35 H           3.876884   -2.782750    0.681603 H         1 <1>         0.168800 
     36 H           2.607183   -3.941097    1.123823 H         1 <1>         0.202300 
     37 H           3.160455   -3.827034   -0.554229 H         1 <1>         0.164400 
     38 H           2.955123   -0.397363   -2.482059 H         1 <1>         0.180400 
     39 H           3.696993   -1.868002   -1.849744 H         1 <1>         0.166000 
     40 H           5.853828   -1.539360   -0.988914 H         1 <1>         0.159000 
     41 H           6.942831    2.089540    1.034282 H         1 <1>         0.177600 
     42 H           2.951953    1.584538   -0.481465 H         1 <1>         0.171300 
     43 H          -1.177123    2.928784   -1.450117 H         1 <1>         0.201700 
     44 H           0.209604    1.856440   -1.755144 H         1 <1>         0.235600 
     45 H          -0.000418    0.050510   -3.536085 H         1 <1>         0.165200 
     46 H          -0.936772   -0.487663   -5.794351 H         1 <1>         0.186500 
     47 H          -3.939632    2.525900   -5.278501 H         1 <1>         0.187800 
     48 H          -3.012768    3.075939   -3.028275 H         1 <1>         0.147300 
     49 H          -1.215014   -1.466469    1.066867 H         1 <1>         0.360200 
@<TRIPOS>BOND
     1   27   28 2    
     2    8   11 1    
     3   25   46 1    
     4    6   40 1    
     5    8    9 1    
     6    4   39 1    
     7   27   29 2    
     8   26   27 1    
     9    7    8 1    
    10    8   10 1    
    11    4   38 1    
    12    1   37 1    
    13   25   26 ar   
    14   24   25 ar   
    15    6    7 ar   
    16    5    6 ar   
    17    4    5 1    
    18    3    4 1    
    19   30   26 ar   
    20    7   12 ar   
    21   24   45 1    
    22    5   18 ar   
    23   23   24 ar   
    24    1   35 1    
    25    1   36 1    
    26    2    1 1    
    27    3    2 ar   
    28   19    3 ar   
    29   12   41 1    
    30   13   12 ar   
    31   30   47 1    
    32   31   30 ar   
    33   18   13 ar   
    34   18   42 1    
    35   33    2 ar   
    36   20   19 ar   
    37   13   14 1    
    38   23   31 ar   
    39   22   23 1    
    40   31   48 1    
    41   22   44 1    
    42   33   34 2    
    43   32   33 ar   
    44   20   32 ar   
    45   21   20 1    
    46   22   43 1    
    47   22   21 1    
    48   14   15 1    
    49   14   16 1    
    50   14   17 1    
    51   32   49 1    
@<TRIPOS>SUBSTRUCTURE
     1 ****       46 TEMP              0 ****  ****    0 ROOT 
