#	Name:			WYP-2008-BMC-3887-5H
#	Creating user name:	Administrator
#	Creation time:		Sun Jul 05 16:57:01 2020

#	Modifying user name:	Administrator
#	Modification time:	Sun Jul 05 16:57:59 2020

@<TRIPOS>MOLECULE
WYP-2008-BMC-3887-5H
   57    60     1     0     0
SMALL
MULLIKEN_CHARGES
INVALID_CHARGES
Gaussian 16 #p B3LYP/6-31G* opt
@<TRIPOS>ATOM
      1 C          -7.859576    2.559987   -4.105207 C.3       1 <1>        -0.221500 
      2 O          -6.941935    1.751397   -4.831152 O.3       1 <1>        -0.497100 
      3 C          -5.670666    1.635983   -4.372321 C.ar      1 <1>         0.388800 
      4 C          -5.178622    2.266862   -3.221281 C.ar      1 <1>        -0.200500 
      5 C          -3.849475    2.074095   -2.847604 C.ar      1 <1>        -0.187200 
      6 C          -2.990766    1.259576   -3.597973 C.ar      1 <1>         0.084100 
      7 C          -1.565164    1.023075   -3.250259 C.2       1 <1>         0.419700 
      8 O          -0.847688    0.318363   -3.947524 O.2       1 <1>        -0.451000 
      9 C          -0.972554    1.676052   -1.998042 C.3       1 <1>        -0.545500 
     10 S          -1.472422    0.804584   -0.454085 S.3       1 <1>         0.152400 
     11 C          -0.117045   -0.351168   -0.284761 C.ar      1 <1>         0.340400 
     12 N           0.993843   -0.207719   -0.928853 N.ar      1 <1>        -0.511600 
     13 C           1.985048   -1.162396   -0.768318 C.ar      1 <1>         0.237000 
     14 C           3.168645   -0.912512   -1.710798 C.3       1 <1>        -0.312200 
     15 C           3.190972   -1.993561   -2.804211 C.ar      1 <1>         0.149500 
     16 C           2.208693   -1.931572   -3.805947 C.ar      1 <1>        -0.199800 
     17 C           2.153282   -2.896977   -4.810301 C.ar      1 <1>        -0.133900 
     18 C           3.080590   -3.940989   -4.835238 C.ar      1 <1>        -0.128400 
     19 C           4.061310   -4.010023   -3.845945 C.ar      1 <1>        -0.135600 
     20 C           4.114780   -3.044946   -2.837055 C.ar      1 <1>        -0.186500 
     21 C           4.512686   -0.593864   -1.046837 C.ar      1 <1>         0.144900 
     22 C           4.644081   -0.366512    0.328559 C.ar      1 <1>        -0.182600 
     23 C           5.867890    0.020197    0.881370 C.ar      1 <1>        -0.134800 
     24 C           6.985105    0.194918    0.066830 C.ar      1 <1>        -0.127900 
     25 C           6.865670   -0.014815   -1.308799 C.ar      1 <1>        -0.134800 
     26 C           5.644004   -0.401098   -1.857112 C.ar      1 <1>        -0.175700 
     27 C           1.856221   -2.230429    0.089453 C.ar      1 <1>         0.052800 
     28 C           2.866318   -3.325596    0.296965 C.3       1 <1>        -0.529600 
     29 C           0.618351   -2.379051    0.850434 C.ar      1 <1>         0.575700 
     30 O           0.347054   -3.268778    1.646845 O.2       1 <1>        -0.520900 
     31 N          -0.339395   -1.372574    0.583559 N.ar      1 <1>        -0.650900 
     32 C          -3.505391    0.633784   -4.751939 C.ar      1 <1>        -0.161200 
     33 C          -4.819950    0.815757   -5.136662 C.ar      1 <1>        -0.171000 
     34 H          -7.527161    3.604916   -4.064345 H         1 <1>         0.158800 
     35 H          -8.802510    2.501081   -4.650773 H         1 <1>         0.178800 
     36 H          -8.004787    2.183334   -3.084955 H         1 <1>         0.159800 
     37 H          -5.815188    2.902130   -2.616786 H         1 <1>         0.140400 
     38 H          -3.495819    2.573171   -1.950529 H         1 <1>         0.136600 
     39 H           0.115435    1.608541   -2.050135 H         1 <1>         0.248100 
     40 H          -1.279172    2.717201   -1.874052 H         1 <1>         0.195500 
     41 H           2.879237    0.011706   -2.224151 H         1 <1>         0.187600 
     42 H           1.476326   -1.126988   -3.793156 H         1 <1>         0.172400 
     43 H           1.385402   -2.828790   -5.576472 H         1 <1>         0.132000 
     44 H           3.040828   -4.691656   -5.620272 H         1 <1>         0.125900 
     45 H           4.790866   -4.815929   -3.855380 H         1 <1>         0.127300 
     46 H           4.891925   -3.106040   -2.081732 H         1 <1>         0.138200 
     47 H           3.783686   -0.487990    0.979147 H         1 <1>         0.133100 
     48 H           5.941551    0.185594    1.953107 H         1 <1>         0.129600 
     49 H           7.937384    0.494367    0.496290 H         1 <1>         0.127600 
     50 H           7.725422    0.124844   -1.959180 H         1 <1>         0.129400 
     51 H           5.564585   -0.556205   -2.929525 H         1 <1>         0.139400 
     52 H           2.676570   -4.165268   -0.383871 H         1 <1>         0.178000 
     53 H           3.888110   -2.983064    0.130621 H         1 <1>         0.164600 
     54 H           2.778105   -3.711659    1.316108 H         1 <1>         0.180100 
     55 H          -1.232722   -1.489760    1.051371 H         1 <1>         0.353400 
     56 H          -2.840307    0.003182   -5.332513 H         1 <1>         0.168100 
     57 H          -5.223552    0.337619   -6.023496 H         1 <1>         0.150000 
@<TRIPOS>BOND
     1   25   50 1    
     2   24   49 1    
     3   25   24 ar   
     4   26   25 ar   
     5   23   24 ar   
     6    9   40 1    
     7   26   51 1    
     8   21   26 ar   
     9    9   39 1    
    10   23   48 1    
    11   22   23 ar   
    12   14   41 1    
    13    9    7 1    
    14   10    9 1    
    15    5   38 1    
    16    1   34 1    
    17   21   22 ar   
    18   14   21 1    
    19   22   47 1    
    20    7    8 2    
    21    7    6 1    
    22    6    5 ar   
    23    5    4 ar   
    24    4   37 1    
    25    6   32 ar   
    26    4    3 ar   
    27   14   15 1    
    28   13   14 1    
    29   16   42 1    
    30   32   56 1    
    31   32   33 ar   
    32   33    3 ar   
    33    3    2 1    
    34    2    1 1    
    35    1   35 1    
    36    1   36 1    
    37   13   12 ar   
    38   12   11 ar   
    39   11   10 1    
    40   33   57 1    
    41   15   16 ar   
    42   15   20 ar   
    43   16   17 ar   
    44   27   13 ar   
    45   11   31 ar   
    46   20   46 1    
    47   20   19 ar   
    48   17   43 1    
    49   17   18 ar   
    50   19   18 ar   
    51   19   45 1    
    52   18   44 1    
    53   28   53 1    
    54   27   28 1    
    55   27   29 ar   
    56   31   55 1    
    57   31   29 ar   
    58   28   52 1    
    59   28   54 1    
    60   29   30 2    
@<TRIPOS>SUBSTRUCTURE
     1 ****       34 TEMP              0 ****  ****    0 ROOT 
