#	Name:			YSQ-2012-CMC-152-8
#	Creating user name:	Administrator
#	Creation time:		Sun Jul 05 16:57:46 2020

#	Modifying user name:	Administrator
#	Modification time:	Sun Jul 05 16:57:59 2020

@<TRIPOS>MOLECULE
YSQ-2012-CMC-152-8
   53    55     1     0     0
SMALL
MULLIKEN_CHARGES
INVALID_CHARGES
Gaussian 16 #p B3LYP/6-31G* opt
@<TRIPOS>ATOM
      1 C          -6.918324    5.083124    3.453570 C.3       1 <1>        -0.223800 
      2 O          -6.332875    3.970415    4.121422 O.3       1 <1>        -0.494100 
      3 C          -5.601335    3.087704    3.401707 C.ar      1 <1>         0.392300 
      4 C          -5.048838    2.017472    4.131475 C.ar      1 <1>        -0.170900 
      5 C          -4.284448    1.064206    3.488934 C.ar      1 <1>        -0.156800 
      6 C          -4.049476    1.135165    2.098312 C.ar      1 <1>         0.083700 
      7 C          -3.218360    0.081535    1.480681 C.2       1 <1>         0.427000 
      8 O          -2.691430   -0.796889    2.164695 O.2       1 <1>        -0.477200 
      9 C          -2.974134    0.059075   -0.025843 C.3       1 <1>        -0.565700 
     10 S          -1.393514    0.881799   -0.510122 S.3       1 <1>         0.197800 
     11 C          -0.154514   -0.385647   -0.257445 C.ar      1 <1>         0.320300 
     12 N           0.932517   -0.225707   -0.945932 N.ar      1 <1>        -0.508400 
     13 C           1.956071   -1.135031   -0.760762 C.ar      1 <1>         0.220700 
     14 C           3.187677   -0.769807   -1.592630 C.3       1 <1>        -0.442800 
     15 C           3.773993   -1.812172   -2.529998 C.ar      1 <1>         0.197300 
     16 C           5.124219   -2.211065   -2.475015 C.ar      1 <1>        -0.143300 
     17 CL          6.214710   -1.537470   -1.259040 Cl        1 <1>        -0.013600 
     18 C           5.681568   -3.138272   -3.354643 C.ar      1 <1>        -0.117700 
     19 C           4.886887   -3.700606   -4.348489 C.ar      1 <1>        -0.125800 
     20 C           3.552831   -3.322002   -4.465322 C.ar      1 <1>        -0.120300 
     21 C           3.024952   -2.389603   -3.573868 C.ar      1 <1>        -0.135100 
     22 CL          1.351416   -1.910570   -3.821034 Cl        1 <1>         0.002200 
     23 C           1.876549   -2.200754    0.108381 C.ar      1 <1>         0.067700 
     24 C           3.011966   -3.174232    0.380985 C.3       1 <1>        -0.150000 
     25 C           3.458466   -3.133406    1.857857 C.3       1 <1>        -0.453000 
     26 C           2.662830   -4.610693   -0.058356 C.3       1 <1>        -0.454500 
     27 C           0.631185   -2.397447    0.848809 C.ar      1 <1>         0.575100 
     28 O           0.375048   -3.298466    1.641457 O.2       1 <1>        -0.524300 
     29 N          -0.351688   -1.406276    0.609887 N.ar      1 <1>        -0.662800 
     30 C          -4.606619    2.207006    1.384555 C.ar      1 <1>        -0.184600 
     31 C          -5.373183    3.180284    2.020794 C.ar      1 <1>        -0.199500 
     32 H          -6.152737    5.722717    2.997571 H         1 <1>         0.162600 
     33 H          -7.448511    5.644519    4.224056 H         1 <1>         0.181600 
     34 H          -7.629647    4.757723    2.684541 H         1 <1>         0.161000 
     35 H          -5.237376    1.968564    5.199040 H         1 <1>         0.155000 
     36 H          -3.849035    0.239246    4.042530 H         1 <1>         0.176400 
     37 H          -2.950596   -0.981125   -0.360241 H         1 <1>         0.219300 
     38 H          -3.744557    0.578191   -0.597982 H         1 <1>         0.200400 
     39 H           2.887316    0.099276   -2.186495 H         1 <1>         0.199100 
     40 H           3.974548   -0.428398   -0.915408 H         1 <1>         0.192000 
     41 H           6.726655   -3.408624   -3.254408 H         1 <1>         0.159800 
     42 H           5.309259   -4.426441   -5.036891 H         1 <1>         0.148700 
     43 H           2.919673   -3.733566   -5.243410 H         1 <1>         0.159400 
     44 H           3.869738   -2.852893   -0.213504 H         1 <1>         0.136800 
     45 H           4.324287   -3.790737    2.001950 H         1 <1>         0.135800 
     46 H           3.754335   -2.119554    2.152277 H         1 <1>         0.134400 
     47 H           2.654941   -3.466102    2.518794 H         1 <1>         0.182400 
     48 H           2.413370   -4.647120   -1.124922 H         1 <1>         0.138700 
     49 H           1.811922   -4.992687    0.511029 H         1 <1>         0.180400 
     50 H           3.520202   -5.273361    0.110854 H         1 <1>         0.134000 
     51 H          -1.183932   -1.451690    1.210729 H         1 <1>         0.395600 
     52 H          -4.439376    2.310147    0.317376 H         1 <1>         0.142400 
     53 H          -5.783233    3.998304    1.440626 H         1 <1>         0.144400 
@<TRIPOS>BOND
     1   26   49 1    
     2    9   37 1    
     3   26   48 1    
     4   20   43 1    
     5   26   50 1    
     6   24   26 1    
     7   27   28 2    
     8    9   38 1    
     9    7    9 1    
    10    9   10 1    
    11   20   19 ar   
    12   21   20 ar   
    13   19   42 1    
    14   21   22 1    
    15    7    8 2    
    16   29   51 1    
    17    6    7 1    
    18   29   27 ar   
    19   27   23 ar   
    20   18   19 ar   
    21   11   29 ar   
    22    5   36 1    
    23   15   21 ar   
    24    5    6 ar   
    25   30    6 ar   
    26    4    5 ar   
    27   23   24 1    
    28   24   44 1    
    29   24   25 1    
    30   30   52 1    
    31   13   23 ar   
    32   25   47 1    
    33   31   30 ar   
    34   10   11 1    
    35   11   12 ar   
    36    4   35 1    
    37    3    4 ar   
    38    3   31 ar   
    39   31   53 1    
    40   18   41 1    
    41   16   18 ar   
    42   25   45 1    
    43   25   46 1    
    44    1   34 1    
    45    2    3 1    
    46   12   13 ar   
    47   13   14 1    
    48   15   16 ar   
    49   14   15 1    
    50    2    1 1    
    51   16   17 1    
    52   14   39 1    
    53   14   40 1    
    54    1   33 1    
    55    1   32 1    
@<TRIPOS>SUBSTRUCTURE
     1 ****       43 TEMP              0 ****  ****    0 ROOT 
