#	Name:			YSQ-2012-CMC-152-18
#	Creating user name:	Administrator
#	Creation time:		Sun Jul 05 16:57:45 2020

#	Modifying user name:	Administrator
#	Modification time:	Sun Jul 05 16:57:59 2020

@<TRIPOS>MOLECULE
YSQ-2012-CMC-152-18
   44    46     1     0     0
SMALL
MULLIKEN_CHARGES
INVALID_CHARGES
Gaussian 16 #p B3LYP/def2SVP opt
@<TRIPOS>ATOM
      1 O           0.337819   -3.272274    1.646884 O.2       1 <1>        -0.198900 
      2 C           0.609408   -2.391709    0.857594 C.ar      1 <1>         0.192700 
      3 N          -0.332537   -1.373821    0.582893 N.ar      1 <1>        -0.080200 
      4 C          -0.117277   -0.351164   -0.289992 C.ar      1 <1>         0.043100 
      5 S          -1.457022    0.796575   -0.436292 S.3       1 <1>        -0.008300 
      6 C          -0.787662    1.981949   -1.661332 C.3       1 <1>        -0.086800 
      7 C          -0.955788    1.539942   -3.113482 C.3       1 <1>         0.072100 
      8 C          -0.431018    2.582944   -4.123135 C.3       1 <1>         0.091500 
      9 C          -1.193969    3.892077   -4.130212 C.ar      1 <1>        -0.033000 
     10 C          -0.675474    5.043405   -3.516649 C.ar      1 <1>        -0.016100 
     11 C          -1.395794    6.242565   -3.506640 C.ar      1 <1>         0.022000 
     12 C          -2.652412    6.311309   -4.113384 C.ar      1 <1>         0.017900 
     13 C          -3.181324    5.173332   -4.731580 C.ar      1 <1>         0.022400 
     14 C          -2.458109    3.978339   -4.738841 C.ar      1 <1>        -0.016300 
     15 N           0.989038   -0.223675   -0.955082 N.ar      1 <1>        -0.136300 
     16 C           1.995399   -1.144925   -0.768583 C.ar      1 <1>        -0.052200 
     17 C           3.234876   -0.866189   -1.592583 C.3       1 <1>         0.248200 
     18 C           3.925823    0.427187   -1.195000 C.ar      1 <1>        -0.030000 
     19 C           3.829721    1.574305   -1.995813 C.ar      1 <1>        -0.008100 
     20 C           4.464914    2.763566   -1.624211 C.ar      1 <1>         0.016000 
     21 C           5.203406    2.823618   -0.439510 C.ar      1 <1>         0.020200 
     22 C           5.304828    1.686135    0.368235 C.ar      1 <1>         0.021200 
     23 C           4.671999    0.498694   -0.007187 C.ar      1 <1>        -0.011000 
     24 C           1.846828   -2.206537    0.096851 C.ar      1 <1>        -0.282500 
     25 I           3.313580   -3.690127    0.460095 I         1 <1>         0.078700 
     26 H          -1.209519   -1.450432    1.094948 H         1 <1>         0.140000 
     27 H           0.270446    2.137251   -1.406635 H         1 <1>         0.067100 
     28 H          -1.337679    2.911959   -1.452315 H         1 <1>         0.060800 
     29 H          -2.020207    1.331825   -3.314562 H         1 <1>         0.006200 
     30 H          -0.409107    0.595419   -3.259860 H         1 <1>         0.015500 
     31 H          -0.475483    2.131277   -5.128461 H         1 <1>         0.009000 
     32 H           0.635026    2.778549   -3.918416 H         1 <1>        -0.001800 
     33 H           0.310660    5.002475   -3.044572 H         1 <1>        -0.027000 
     34 H          -0.970370    7.127127   -3.025071 H         1 <1>        -0.015700 
     35 H          -3.215896    7.247764   -4.109219 H         1 <1>        -0.014200 
     36 H          -4.160569    5.218586   -5.215512 H         1 <1>        -0.015200 
     37 H          -2.878680    3.096904   -5.232807 H         1 <1>        -0.026200 
     38 H           3.933480   -1.708869   -1.512329 H         1 <1>         0.007300 
     39 H           2.912889   -0.796017   -2.643735 H         1 <1>         0.003400 
     40 H           3.255719    1.532424   -2.925592 H         1 <1>        -0.028300 
     41 H           4.384600    3.645602   -2.265269 H         1 <1>        -0.019200 
     42 H           5.701633    3.751705   -0.147784 H         1 <1>        -0.015600 
     43 H           5.883832    1.722272    1.294793 H         1 <1>        -0.014500 
     44 H           4.759840   -0.386795    0.628641 H         1 <1>        -0.017900 
@<TRIPOS>BOND
     1    8   31 1    
     2   17   39 1    
     3   14   37 1    
     4   17   38 1    
     5    7   30 1    
     6    8   32 1    
     7    7    8 1    
     8    8    9 1    
     9   19   40 1    
    10   16   17 1    
    11   17   18 1    
    12    9   14 ar   
    13   14   13 ar   
    14    7   29 1    
    15    6    7 1    
    16    9   10 ar   
    17   13   36 1    
    18   18   19 ar   
    19   19   20 ar   
    20   13   12 ar   
    21   24   25 1    
    22   16   24 ar   
    23   15   16 ar   
    24   18   23 ar   
    25   20   41 1    
    26   24    2 ar   
    27    4   15 ar   
    28   10   33 1    
    29   10   11 ar   
    30   20   21 ar   
    31   11   12 ar   
    32   12   35 1    
    33    6   27 1    
    34    6   28 1    
    35    5    6 1    
    36   23   44 1    
    37   23   22 ar   
    38    4    3 ar   
    39    4    5 1    
    40   11   34 1    
    41    2    3 ar   
    42    2    1 2    
    43    3   26 1    
    44   21   22 ar   
    45   21   42 1    
    46   22   43 1    
@<TRIPOS>SUBSTRUCTURE
     1 ****       40 TEMP              0 ****  ****    0 ROOT 
