#	Name:			YSQ-2012-CMC-152-20
#	Creating user name:	Administrator
#	Creation time:		Sun Jul 05 16:57:45 2020

#	Modifying user name:	Administrator
#	Modification time:	Sun Jul 05 16:57:59 2020

@<TRIPOS>MOLECULE
YSQ-2012-CMC-152-20
   36    37     1     0     0
SMALL
MULLIKEN_CHARGES
INVALID_CHARGES
Gaussian 16 #p B3LYP/6-31G* opt
@<TRIPOS>ATOM
      1 C           2.947774   -3.231044    0.357240 C.3       1 <1>        -0.502900 
      2 C           1.872852   -2.212105    0.104779 C.ar      1 <1>         0.059600 
      3 C           1.950267   -1.129660   -0.741503 C.ar      1 <1>         0.144900 
      4 C           3.233705   -0.802937   -1.481987 C.2       1 <1>         0.358300 
      5 O           4.295975   -0.890352   -0.879399 O.2       1 <1>        -0.461800 
      6 C           3.196146   -0.383152   -2.915983 C.ar      1 <1>         0.082400 
      7 C           4.387526    0.112751   -3.472269 C.ar      1 <1>        -0.154200 
      8 C           4.442801    0.477864   -4.813023 C.ar      1 <1>        -0.134700 
      9 C           3.310260    0.338709   -5.621295 C.ar      1 <1>        -0.117000 
     10 C           2.125189   -0.163826   -5.080913 C.ar      1 <1>        -0.139800 
     11 C           2.063784   -0.519422   -3.734229 C.ar      1 <1>        -0.148500 
     12 N           0.928665   -0.227750   -0.951675 N.ar      1 <1>        -0.506000 
     13 C          -0.166279   -0.375665   -0.267328 C.ar      1 <1>         0.320700 
     14 S          -1.392518    0.889664   -0.513501 S.3       1 <1>         0.186400 
     15 C          -3.024424    0.263210    0.133410 C.3       1 <1>        -0.280900 
     16 C          -3.493607   -1.036625   -0.530114 C.3       1 <1>        -0.446800 
     17 C          -3.146346    0.262815    1.662870 C.3       1 <1>        -0.450100 
     18 N          -0.338738   -1.404214    0.608845 N.ar      1 <1>        -0.646300 
     19 C           0.633683   -2.404192    0.851403 C.ar      1 <1>         0.574700 
     20 O           0.383723   -3.303608    1.643253 O.2       1 <1>        -0.516500 
     21 H           3.461998   -3.018355    1.302688 H         1 <1>         0.180100 
     22 H           3.702525   -3.241864   -0.428867 H         1 <1>         0.168600 
     23 H           2.494612   -4.221870    0.458328 H         1 <1>         0.171400 
     24 H           5.258074    0.200028   -2.830589 H         1 <1>         0.162400 
     25 H           5.366784    0.867537   -5.231665 H         1 <1>         0.137000 
     26 H           3.352454    0.621095   -6.670032 H         1 <1>         0.136200 
     27 H           1.245104   -0.275684   -5.708129 H         1 <1>         0.134500 
     28 H           1.136392   -0.895066   -3.319132 H         1 <1>         0.148900 
     29 H          -3.659425    1.076070   -0.241418 H         1 <1>         0.190400 
     30 H          -4.524584   -1.250863   -0.223553 H         1 <1>         0.162700 
     31 H          -3.470256   -0.951793   -1.620097 H         1 <1>         0.174900 
     32 H          -2.882049   -1.899152   -0.246672 H         1 <1>         0.159100 
     33 H          -2.810052    1.212935    2.086808 H         1 <1>         0.179400 
     34 H          -4.196196    0.112283    1.942482 H         1 <1>         0.165000 
     35 H          -2.574250   -0.538042    2.144927 H         1 <1>         0.155900 
     36 H          -1.178249   -1.495393    1.166651 H         1 <1>         0.352000 
@<TRIPOS>BOND
     1   17   33 1    
     2    7   24 1    
     3    4    5 2    
     4   17   35 1    
     5   17   34 1    
     6   15   17 1    
     7   13   14 1    
     8   14   15 1    
     9    8   25 1    
    10    7    8 ar   
    11    6    7 ar   
    12    3    4 1    
    13    4    6 1    
    14   12   13 ar   
    15    3   12 ar   
    16   18   13 ar   
    17   15   29 1    
    18    8    9 ar   
    19    1   21 1    
    20    2    3 ar   
    21    6   11 ar   
    22   15   16 1    
    23   18   36 1    
    24   19   18 ar   
    25    2   19 ar   
    26    2    1 1    
    27   19   20 2    
    28    1   22 1    
    29    1   23 1    
    30    9   26 1    
    31    9   10 ar   
    32   11   10 ar   
    33   11   28 1    
    34   10   27 1    
    35   16   32 1    
    36   16   30 1    
    37   16   31 1    
@<TRIPOS>SUBSTRUCTURE
     1 ****       14 TEMP              0 ****  ****    0 ROOT 
