#	Name:			YSQ-2012-CMC-152-MC-1047
#	Creating user name:	Administrator
#	Creation time:		Sun Jul 05 16:57:47 2020

#	Modifying user name:	Administrator
#	Modification time:	Sun Jul 05 16:57:59 2020

@<TRIPOS>MOLECULE
YSQ-2012-CMC-152-MC-1047
   44    46     1     0     0
SMALL
MULLIKEN_CHARGES
INVALID_CHARGES
Gaussian 16 #p B3LYP/6-31G* opt
@<TRIPOS>ATOM
      1 C           2.903017   -3.270684    0.391478 C.3       1 <1>        -0.539200 
      2 C           1.863147   -2.220082    0.106516 C.ar      1 <1>         0.046000 
      3 C           1.979875   -1.165885   -0.767720 C.ar      1 <1>         0.241400 
      4 C           3.218214   -0.857744   -1.619402 C.3       1 <1>        -0.218200 
      5 C           4.286567   -0.126423   -0.779711 C.3       1 <1>        -0.453600 
      6 C           3.696069   -2.036395   -2.464097 C.ar      1 <1>         0.011300 
      7 C           2.901150   -2.446161   -3.544514 C.ar      1 <1>         0.342300 
      8 F           1.735165   -1.791628   -3.743069 F         1 <1>        -0.291000 
      9 C           3.233218   -3.469103   -4.421379 C.ar      1 <1>        -0.193400 
     10 C           4.438785   -4.143841   -4.227739 C.ar      1 <1>        -0.134500 
     11 C           5.274026   -3.788121   -3.171679 C.ar      1 <1>        -0.192900 
     12 C           4.887412   -2.754097   -2.324409 C.ar      1 <1>         0.326800 
     13 F           5.723293   -2.458088   -1.298876 F         1 <1>        -0.297500 
     14 N           0.990130   -0.214490   -0.946777 N.ar      1 <1>        -0.523200 
     15 C          -0.116709   -0.341760   -0.281241 C.ar      1 <1>         0.330900 
     16 S          -1.468131    0.800411   -0.446911 S.3       1 <1>         0.128900 
     17 C          -0.775104    2.007093   -1.677620 C.3       1 <1>        -0.245300 
     18 C           0.178381    3.027510   -1.038241 C.3       1 <1>        -0.263900 
     19 C          -0.742576    4.070344   -0.368626 C.3       1 <1>        -0.276200 
     20 C          -2.077147    4.036250   -1.172520 C.3       1 <1>        -0.276100 
     21 C          -1.926263    2.886570   -2.202719 C.3       1 <1>        -0.294400 
     22 N          -0.335936   -1.371487    0.583570 N.ar      1 <1>        -0.650500 
     23 C           0.615063   -2.380380    0.846531 C.ar      1 <1>         0.576800 
     24 O           0.344216   -3.273857    1.640303 O.2       1 <1>        -0.524100 
     25 H           3.916964   -2.936638    0.174510 H         1 <1>         0.163500 
     26 H           2.841973   -3.558881    1.444933 H         1 <1>         0.180800 
     27 H           2.714627   -4.182208   -0.191130 H         1 <1>         0.169900 
     28 H           2.846697   -0.124989   -2.342289 H         1 <1>         0.174600 
     29 H           3.844017    0.794305   -0.385781 H         1 <1>         0.153400 
     30 H           5.149616    0.145493   -1.395490 H         1 <1>         0.153700 
     31 H           4.644092   -0.719142    0.063792 H         1 <1>         0.165900 
     32 H           2.555101   -3.716047   -5.230779 H         1 <1>         0.149700 
     33 H           4.724360   -4.948834   -4.897839 H         1 <1>         0.147100 
     34 H           6.215690   -4.292818   -2.985420 H         1 <1>         0.149800 
     35 H          -0.298827    1.397771   -2.446954 H         1 <1>         0.198200 
     36 H           0.752225    3.491334   -1.852840 H         1 <1>         0.143400 
     37 H           0.899007    2.569295   -0.357021 H         1 <1>         0.164300 
     38 H          -0.286117    5.065165   -0.360457 H         1 <1>         0.141400 
     39 H          -0.923462    3.795644    0.675639 H         1 <1>         0.154400 
     40 H          -2.924503    3.850328   -0.504142 H         1 <1>         0.149900 
     41 H          -2.278982    4.987315   -1.675757 H         1 <1>         0.143600 
     42 H          -2.853955    2.332576   -2.376822 H         1 <1>         0.160100 
     43 H          -1.607880    3.286973   -3.173252 H         1 <1>         0.153500 
     44 H          -1.213284   -1.462989    1.085671 H         1 <1>         0.352500 
@<TRIPOS>BOND
     1    9   32 1    
     2   21   42 1    
     3   10   33 1    
     4    9   10 ar   
     5    7    9 ar   
     6    7    8 1    
     7   11   10 ar   
     8    6    7 ar   
     9   22   44 1    
    10   21   43 1    
    11   17   21 1    
    12   21   20 1    
    13   15   16 1    
    14   16   17 1    
    15   17   35 1    
    16   15   22 ar   
    17   23   22 ar   
    18   23   24 2    
    19    1   27 1    
    20   14   15 ar   
    21    2   23 ar   
    22   17   18 1    
    23   20   40 1    
    24   11   34 1    
    25   12   11 ar   
    26    3   14 ar   
    27   20   41 1    
    28   20   19 1    
    29    3    2 ar   
    30    2    1 1    
    31    6   12 ar   
    32    4    6 1    
    33    3    4 1    
    34    1   26 1    
    35    1   25 1    
    36    4   28 1    
    37   12   13 1    
    38    4    5 1    
    39   18   36 1    
    40   18   19 1    
    41   18   37 1    
    42   19   39 1    
    43   19   38 1    
    44    5   31 1    
    45    5   29 1    
    46    5   30 1    
@<TRIPOS>SUBSTRUCTURE
     1 ****       44 TEMP              0 ****  ****    0 ROOT 
