#	Name:			YSQ-2012-CMC-152-21
#	Creating user name:	Administrator
#	Creation time:		Sun Jul 05 16:57:45 2020

#	Modifying user name:	Administrator
#	Modification time:	Sun Jul 05 16:57:59 2020

@<TRIPOS>MOLECULE
YSQ-2012-CMC-152-21
   50    53     1     0     0
SMALL
MULLIKEN_CHARGES
INVALID_CHARGES
Gaussian 16 #p B3LYP/6-31G* opt
@<TRIPOS>ATOM
      1 C           2.441569   -4.609030   -0.592461 C.3       1 <1>        -0.449900 
      2 C           2.837507   -3.376064    0.243016 C.3       1 <1>        -0.333400 
      3 C           1.856915   -2.243261    0.081833 C.ar      1 <1>         0.087100 
      4 C           1.982325   -1.154854   -0.747926 C.ar      1 <1>        -0.015800 
      5 S           3.414330   -0.821755   -1.802739 S.3       1 <1>         0.163800 
      6 C           4.822779   -0.734806   -0.686926 C.ar      1 <1>        -0.180000 
      7 C           5.881795   -1.586988   -0.941785 C.ar      1 <1>        -0.155200 
      8 C           7.072188   -1.518133   -0.181961 C.ar      1 <1>        -0.126300 
      9 C           7.183258   -0.608852    0.842542 C.ar      1 <1>        -0.189600 
     10 C           6.124404    0.292901    1.132128 C.ar      1 <1>         0.147200 
     11 C           6.239439    1.248775    2.176899 C.ar      1 <1>        -0.192200 
     12 C           5.227935    2.145388    2.432182 C.ar      1 <1>        -0.130100 
     13 C           4.056301    2.128539    1.640208 C.ar      1 <1>        -0.138800 
     14 C           3.906406    1.210130    0.624227 C.ar      1 <1>        -0.203400 
     15 C           4.922428    0.256620    0.345413 C.ar      1 <1>         0.128100 
     16 N           0.994412   -0.211321   -0.942509 N.ar      1 <1>        -0.473200 
     17 C          -0.115102   -0.347137   -0.289507 C.ar      1 <1>         0.341500 
     18 S          -1.479393    0.793475   -0.453165 S.3       1 <1>         0.163900 
     19 C          -0.909185    1.828387   -1.868730 C.3       1 <1>        -0.552900 
     20 C          -1.883303    1.727136   -3.046019 C.2       1 <1>         0.419300 
     21 O          -1.571063    1.063673   -4.020471 O.2       1 <1>        -0.439200 
     22 C          -3.192667    2.445701   -2.977307 C.ar      1 <1>         0.082000 
     23 C          -3.575937    3.235715   -1.882054 C.ar      1 <1>        -0.182000 
     24 C          -4.812470    3.881108   -1.876718 C.ar      1 <1>        -0.133900 
     25 C          -5.674825    3.746302   -2.965611 C.ar      1 <1>        -0.117600 
     26 C          -5.300809    2.962379   -4.062010 C.ar      1 <1>        -0.130500 
     27 C          -4.069375    2.316798   -4.067491 C.ar      1 <1>        -0.154100 
     28 N          -0.326835   -1.355811    0.597861 N.ar      1 <1>        -0.653900 
     29 C           0.617839   -2.377642    0.849134 C.ar      1 <1>         0.589000 
     30 O           0.341493   -3.270979    1.638553 O.2       1 <1>        -0.516000 
     31 H           2.426095   -4.371572   -1.661777 H         1 <1>         0.152400 
     32 H           1.451302   -4.972439   -0.301651 H         1 <1>         0.167700 
     33 H           3.160413   -5.420820   -0.433510 H         1 <1>         0.144800 
     34 H           2.854548   -3.658692    1.301295 H         1 <1>         0.167900 
     35 H           3.842692   -3.053058   -0.027000 H         1 <1>         0.162200 
     36 H           5.790394   -2.325953   -1.732095 H         1 <1>         0.152500 
     37 H           7.887240   -2.200869   -0.404708 H         1 <1>         0.137800 
     38 H           8.087892   -0.560923    1.443732 H         1 <1>         0.135900 
     39 H           7.150916    1.260886    2.769985 H         1 <1>         0.132900 
     40 H           5.329764    2.872176    3.233344 H         1 <1>         0.133000 
     41 H           3.267948    2.851393    1.832669 H         1 <1>         0.131700 
     42 H           3.007871    1.218842    0.017444 H         1 <1>         0.171100 
     43 H           0.058250    1.421244   -2.170660 H         1 <1>         0.262200 
     44 H          -0.785331    2.853270   -1.510929 H         1 <1>         0.199100 
     45 H          -2.917497    3.354624   -1.026613 H         1 <1>         0.140800 
     46 H          -5.100438    4.489337   -1.023946 H         1 <1>         0.141500 
     47 H          -6.637300    4.250866   -2.961086 H         1 <1>         0.142700 
     48 H          -5.972331    2.856791   -4.909593 H         1 <1>         0.143600 
     49 H          -3.758506    1.702444   -4.906089 H         1 <1>         0.169600 
     50 H          -1.208394   -1.452677    1.092260 H         1 <1>         0.356700 
@<TRIPOS>BOND
     1    7   36 1    
     2   27   49 1    
     3   20   21 2    
     4    8   37 1    
     5    7    8 ar   
     6    6    7 ar   
     7    5    6 1    
     8    4    5 1    
     9    8    9 ar   
    10   26   48 1    
    11   27   26 ar   
    12   22   27 ar   
    13    1   31 1    
    14    6   15 ar   
    15   20   22 1    
    16   19   20 1    
    17   19   43 1    
    18   26   25 ar   
    19   22   23 ar   
    20    9   38 1    
    21   10    9 ar   
    22    1   33 1    
    23   19   44 1    
    24   18   19 1    
    25    1   32 1    
    26    2    1 1    
    27   16    4 ar   
    28    4    3 ar   
    29   15   10 ar   
    30   15   14 ar   
    31    2   35 1    
    32   17   16 ar   
    33   10   11 ar   
    34   14   42 1    
    35   25   47 1    
    36   24   25 ar   
    37    3    2 1    
    38    2   34 1    
    39   14   13 ar   
    40    3   29 ar   
    41   23   24 ar   
    42   23   45 1    
    43   17   18 1    
    44   17   28 ar   
    45   24   46 1    
    46   11   39 1    
    47   11   12 ar   
    48   13   12 ar   
    49   13   41 1    
    50   12   40 1    
    51   29   28 ar   
    52   29   30 2    
    53   28   50 1    
@<TRIPOS>SUBSTRUCTURE
     1 ****       31 TEMP              0 ****  ****    0 ROOT 
