#	Name:			YSQ-2012-CMC-152-5
#	Creating user name:	Administrator
#	Creation time:		Sun Jul 05 16:57:46 2020

#	Modifying user name:	Administrator
#	Modification time:	Sun Jul 05 16:57:59 2020

@<TRIPOS>MOLECULE
YSQ-2012-CMC-152-5
   45    47     1     0     0
SMALL
MULLIKEN_CHARGES
INVALID_CHARGES
Gaussian 16 #p B3LYP/6-31G* opt
@<TRIPOS>ATOM
      1 C          -1.347373    4.788735   -8.515814 C.3       1 <1>        -0.215000 
      2 O          -0.520651    3.723653   -8.076049 O.3       1 <1>        -0.506100 
      3 C          -0.849842    3.088352   -6.912962 C.ar      1 <1>         0.374700 
      4 C          -0.000082    2.041145   -6.528414 C.ar      1 <1>        -0.172000 
      5 C          -0.251751    1.332256   -5.360442 C.ar      1 <1>        -0.184100 
      6 C          -1.350292    1.638026   -4.541329 C.ar      1 <1>         0.161700 
      7 C          -1.606201    0.881036   -3.254391 C.3       1 <1>        -0.342900 
      8 C          -1.065538    1.637603   -2.029015 C.3       1 <1>        -0.431200 
      9 S          -1.460487    0.804278   -0.434648 S.3       1 <1>         0.136300 
     10 C          -0.114230   -0.352968   -0.298553 C.ar      1 <1>         0.335800 
     11 N           0.994113   -0.210794   -0.964291 N.ar      1 <1>        -0.507600 
     12 C           1.979650   -1.153823   -0.755462 C.ar      1 <1>         0.327800 
     13 C           3.251143   -0.942745   -1.560199 C.3       1 <1>        -0.436200 
     14 C           3.979757    0.343780   -1.214374 C.ar      1 <1>         0.190300 
     15 C           4.825794    0.435600   -0.093150 C.ar      1 <1>        -0.126600 
     16 CL          5.085397   -0.971236    0.935789 Cl        1 <1>        -0.006800 
     17 C           5.503464    1.602318    0.254630 C.ar      1 <1>        -0.120800 
     18 C           5.351868    2.737957   -0.535702 C.ar      1 <1>        -0.123800 
     19 C           4.538740    2.696330   -1.664078 C.ar      1 <1>        -0.123900 
     20 C           3.872450    1.514536   -1.987152 C.ar      1 <1>        -0.127200 
     21 CL          2.887599    1.543278   -3.447295 Cl        1 <1>        -0.005700 
     22 C           1.840077   -2.207840    0.102474 C.ar      1 <1>        -0.257500 
     23 C           0.619348   -2.391993    0.857585 C.ar      1 <1>         0.612200 
     24 O           0.345422   -3.280603    1.649746 O.2       1 <1>        -0.520200 
     25 N          -0.332238   -1.373787    0.577421 N.ar      1 <1>        -0.645600 
     26 C          -2.189187    2.681211   -4.943275 C.ar      1 <1>        -0.190900 
     27 C          -1.953286    3.407890   -6.113451 C.ar      1 <1>        -0.192800 
     28 H          -0.904961    5.146534   -9.447329 H         1 <1>         0.170800 
     29 H          -2.374240    4.450590   -8.709276 H         1 <1>         0.152100 
     30 H          -1.370787    5.610164   -7.787136 H         1 <1>         0.151500 
     31 H           0.846356    1.799783   -7.163968 H         1 <1>         0.140500 
     32 H           0.413374    0.519247   -5.079373 H         1 <1>         0.136900 
     33 H          -2.681282    0.709775   -3.122440 H         1 <1>         0.156800 
     34 H          -1.128266   -0.103827   -3.295645 H         1 <1>         0.160600 
     35 H           0.019427    1.752116   -2.071860 H         1 <1>         0.235800 
     36 H          -1.520157    2.629028   -1.941939 H         1 <1>         0.181000 
     37 H           2.982685   -0.924624   -2.619892 H         1 <1>         0.189800 
     38 H           3.919110   -1.792955   -1.401248 H         1 <1>         0.181400 
     39 H           6.140536    1.610411    1.131818 H         1 <1>         0.161500 
     40 H           5.873387    3.654175   -0.275677 H         1 <1>         0.150000 
     41 H           4.417237    3.567859   -2.297406 H         1 <1>         0.160900 
     42 H           2.630503   -2.931764    0.255626 H         1 <1>         0.158300 
     43 H          -1.223962   -1.470038    1.052929 H         1 <1>         0.355400 
     44 H          -3.056996    2.935501   -4.337484 H         1 <1>         0.123400 
     45 H          -2.632863    4.205680   -6.390803 H         1 <1>         0.131700 
@<TRIPOS>BOND
     1   13   38 1    
     2    4   31 1    
     3   13   37 1    
     4   22   42 1    
     5    5   32 1    
     6   12   13 1    
     7   13   14 1    
     8    5    4 ar   
     9    4    3 ar   
    10   12   22 ar   
    11   23   22 ar   
    12    6    5 ar   
    13    7   34 1    
    14   11   12 ar   
    15   23   24 2    
    16    3    2 1    
    17    2    1 1    
    18   25   23 ar   
    19   27    3 ar   
    20   20   21 1    
    21   15   16 1    
    22   14   20 ar   
    23   14   15 ar   
    24    1   28 1    
    25    7    6 1    
    26    6   26 ar   
    27    1   29 1    
    28   10   11 ar   
    29    7   33 1    
    30    8    7 1    
    31    1   30 1    
    32   20   19 ar   
    33   10   25 ar   
    34   25   43 1    
    35   15   17 ar   
    36   26   27 ar   
    37   27   45 1    
    38    9   10 1    
    39   26   44 1    
    40    8   35 1    
    41   19   41 1    
    42   19   18 ar   
    43   17   39 1    
    44   17   18 ar   
    45    8    9 1    
    46    8   36 1    
    47   18   40 1    
@<TRIPOS>SUBSTRUCTURE
     1 ****       31 TEMP              0 ****  ****    0 ROOT 
