#	Name:			YSQ-2012-CMC-152-11
#	Creating user name:	Administrator
#	Creation time:		Sun Jul 05 16:57:43 2020

#	Modifying user name:	Administrator
#	Modification time:	Sun Jul 05 16:57:59 2020

@<TRIPOS>MOLECULE
YSQ-2012-CMC-152-11
   55    58     1     0     0
SMALL
MULLIKEN_CHARGES
INVALID_CHARGES
Gaussian 16 #p B3LYP/6-31G* opt
@<TRIPOS>ATOM
      1 C          -7.201374    5.429139   -2.033261 C.3       1 <1>        -0.214400 
      2 O          -6.900301    4.058860   -1.827435 O.3       1 <1>        -0.506500 
      3 C          -5.752612    3.561572   -2.375936 C.ar      1 <1>         0.375200 
      4 C          -5.507055    2.198916   -2.144606 C.ar      1 <1>        -0.173700 
      5 C          -4.365621    1.599486   -2.657058 C.ar      1 <1>        -0.178500 
      6 C          -3.429196    2.328273   -3.415321 C.ar      1 <1>         0.148800 
      7 C          -2.222912    1.634747   -3.974933 C.3       1 <1>        -0.197200 
      8 C          -0.950445    2.373037   -4.311688 C.3       1 <1>        -0.337900 
      9 C          -0.958971    1.396386   -3.157138 C.3       1 <1>        -0.090600 
     10 C          -0.811519    1.928881   -1.754812 C.3       1 <1>        -0.437500 
     11 S          -1.467005    0.800929   -0.445499 S.3       1 <1>         0.140700 
     12 C          -0.116883   -0.345059   -0.286313 C.ar      1 <1>         0.328300 
     13 N           0.993976   -0.213142   -0.943940 N.ar      1 <1>        -0.520400 
     14 C           1.980167   -1.160264   -0.763988 C.ar      1 <1>         0.247100 
     15 C           3.249752   -0.939138   -1.596231 C.3       1 <1>        -0.237400 
     16 C           3.374668    0.490725   -2.154636 C.3       1 <1>        -0.438800 
     17 C           3.393607   -1.973292   -2.708849 C.ar      1 <1>         0.025600 
     18 C           4.531976   -2.776418   -2.825070 C.ar      1 <1>         0.326600 
     19 F           5.503665   -2.647481   -1.888178 F         1 <1>        -0.296700 
     20 C           4.725647   -3.710003   -3.836526 C.ar      1 <1>        -0.189600 
     21 C           3.733410   -3.857222   -4.804444 C.ar      1 <1>        -0.135300 
     22 C           2.574948   -3.081895   -4.746239 C.ar      1 <1>        -0.192100 
     23 C           2.436848   -2.166685   -3.710510 C.ar      1 <1>         0.335800 
     24 F           1.307694   -1.421556   -3.670104 F         1 <1>        -0.287700 
     25 C           1.855399   -2.224038    0.100039 C.ar      1 <1>         0.040200 
     26 C           2.884637   -3.290874    0.355750 C.3       1 <1>        -0.528600 
     27 C           0.614702   -2.380499    0.848121 C.ar      1 <1>         0.578500 
     28 O           0.348369   -3.272217    1.645513 O.2       1 <1>        -0.524400 
     29 N          -0.337070   -1.373239    0.580341 N.ar      1 <1>        -0.650100 
     30 C          -3.695913    3.680438   -3.641782 C.ar      1 <1>        -0.198200 
     31 C          -4.839895    4.304085   -3.130381 C.ar      1 <1>        -0.196200 
     32 H          -7.322655    5.660959   -3.099949 H         1 <1>         0.151600 
     33 H          -6.425965    6.081782   -1.609981 H         1 <1>         0.151000 
     34 H          -8.145485    5.609825   -1.516051 H         1 <1>         0.170200 
     35 H          -6.225972    1.634639   -1.558506 H         1 <1>         0.139400 
     36 H          -4.187551    0.544433   -2.465830 H         1 <1>         0.139000 
     37 H          -2.466714    0.809162   -4.643406 H         1 <1>         0.155000 
     38 H          -0.411668    2.102612   -5.215545 H         1 <1>         0.156500 
     39 H          -0.896743    3.431422   -4.068230 H         1 <1>         0.152000 
     40 H          -0.451758    0.450454   -3.323547 H         1 <1>         0.175000 
     41 H           0.236632    2.108214   -1.506782 H         1 <1>         0.209000 
     42 H          -1.377320    2.853484   -1.610977 H         1 <1>         0.183800 
     43 H           4.098137   -1.098143   -0.925466 H         1 <1>         0.169100 
     44 H           3.311161    1.224979   -1.345702 H         1 <1>         0.153000 
     45 H           2.581512    0.709699   -2.871751 H         1 <1>         0.172800 
     46 H           4.343541    0.605289   -2.652196 H         1 <1>         0.143400 
     47 H           5.637321   -4.296796   -3.850047 H         1 <1>         0.150900 
     48 H           3.861153   -4.579233   -5.604999 H         1 <1>         0.147800 
     49 H           1.783666   -3.171852   -5.482392 H         1 <1>         0.149100 
     50 H           3.868899   -3.044138   -0.043700 H         1 <1>         0.157600 
     51 H           2.971676   -3.469407    1.432615 H         1 <1>         0.177800 
     52 H           2.570358   -4.245194   -0.086794 H         1 <1>         0.171900 
     53 H          -1.216107   -1.463617    1.080201 H         1 <1>         0.352300 
     54 H          -3.007690    4.268855   -4.242214 H         1 <1>         0.126700 
     55 H          -5.005917    5.356150   -3.333057 H         1 <1>         0.130200 
@<TRIPOS>BOND
     1   16   44 1    
     2   16   46 1    
     3   16   45 1    
     4   15   16 1    
     5   10   41 1    
     6   15   43 1    
     7   10   42 1    
     8    8   39 1    
     9    1   33 1    
    10   14   15 1    
    11   15   17 1    
    12   10   11 1    
    13    9   10 1    
    14   18   19 1    
    15   31   55 1    
    16   30   54 1    
    17   13   14 ar   
    18   12   13 ar   
    19    8   38 1    
    20    9    8 1    
    21    7    8 1    
    22   14   25 ar   
    23   26   50 1    
    24   31   30 ar   
    25    3   31 ar   
    26   30    6 ar   
    27   11   12 1    
    28    1   32 1    
    29    1   34 1    
    30    2    1 1    
    31    9   40 1    
    32    7    9 1    
    33   12   29 ar   
    34   17   18 ar   
    35   17   23 ar   
    36   18   20 ar   
    37   26   51 1    
    38   25   26 1    
    39   27   25 ar   
    40   26   52 1    
    41   29   27 ar   
    42   29   53 1    
    43    6    7 1    
    44    6    5 ar   
    45    3    2 1    
    46    3    4 ar   
    47    7   37 1    
    48   27   28 2    
    49   20   47 1    
    50   20   21 ar   
    51   23   24 1    
    52   23   22 ar   
    53    5    4 ar   
    54    5   36 1    
    55    4   35 1    
    56   21   22 ar   
    57   21   48 1    
    58   22   49 1    
@<TRIPOS>SUBSTRUCTURE
     1 ****       55 TEMP              0 ****  ****    0 ROOT 
