@<TRIPOS>MOLECULE
CFE-2008-ZL-29
 48 51 0 0 0
SMALL
MULLIKEN_CHARGES
****
Gaussian 16 #p B3LYP/6-31G* opt
@<TRIPOS>ATOM
1		C		3.4077		5.4031		-0.7756		C.2		1		UNL1		-0.3385
2		C		2.6878		4.2820		-0.8134		C.2		1		UNL1		-0.0514
3		C		2.1220		3.5993		0.4046		C.3		1		UNL1		-0.1832
4		N		0.6676		3.4982		0.3404		N.3		1		UNL1		-0.6338
5		C		-0.0491		2.3517		0.3260		C.ar		1		UNL1		0.7061
6		N		-1.3820		2.4776		0.1994		N.ar		1		UNL1		-0.5801
7		C		-2.0465		1.3116		0.2000		C.ar		1		UNL1		0.7245
8		N		-3.4071		1.4470		0.0760		N.pl3		1		UNL1		-0.7769
9		C		-4.4467		0.5129		0.0272		C.ar		1		UNL1		0.3798
10		C		-4.2673		-0.8808		0.0940		C.ar		1		UNL1		-0.1599
11		C		-5.3730		-1.7203		0.0361		C.ar		1		UNL1		-0.1547
12		C		-6.6737		-1.2047		-0.0885		C.ar		1		UNL1		0.1321
13		C		-7.8036		-2.0811		-0.1458		C.1		1		UNL1		0.2282
14		N		-8.7246		-2.7916		-0.1921		N.1		1		UNL1		-0.4847
15		C		-6.8494		0.1884		-0.1558		C.ar		1		UNL1		-0.1406
16		C		-5.7511		1.0307		-0.0986		C.ar		1		UNL1		-0.2056
17		N		-1.5041		0.0899		0.3081		N.ar		1		UNL1		-0.5425
18		C		-0.1771		0.1191		0.4196		C.ar		1		UNL1		0.6896
19		O		0.3755		-1.1127		0.5235		O.3		1		UNL1		-0.5320
20		C		1.7522		-1.2314		0.6604		C.ar		1		UNL1		0.3588
21		C		2.3013		-1.2183		1.9612		C.ar		1		UNL1		-0.1408
22		C		3.6442		-1.4359		2.1413		C.ar		1		UNL1		-0.2072
23		C		4.4978		-1.6792		1.0328		C.ar		1		UNL1		0.1544
24		C		5.8889		-1.9088		1.2037		C.ar		1		UNL1		-0.1960
25		C		6.7070		-2.1468		0.1237		C.ar		1		UNL1		-0.1306
26		C		6.1635		-2.1661		-1.1822		C.ar		1		UNL1		-0.1333
27		C		4.8193		-1.9485		-1.3877		C.ar		1		UNL1		-0.1945
28		C		3.9485		-1.6995		-0.2938		C.ar		1		UNL1		0.1225
29		C		2.5478		-1.4672		-0.4407		C.ar		1		UNL1		-0.1875
30		CL		1.8127		-1.4782		-2.0305		Cl		1		UNL1		0.0137
31		N		0.6150		1.1786		0.4434		N.ar		1		UNL1		-0.5410
32		H		3.8091		5.8574		-1.6772		H		1		UNL1		0.1509
33		H		3.6334		5.9054		0.1634		H		1		UNL1		0.1420
34		H		2.4716		3.7996		-1.7664		H		1		UNL1		0.1448
35		H		2.4980		2.5765		0.4913		H		1		UNL1		0.2104
36		H		2.4152		4.1428		1.3125		H		1		UNL1		0.1540
37		H		0.1264		4.3428		0.2127		H		1		UNL1		0.3387
38		H		-3.6799		2.4194		0.0066		H		1		UNL1		0.3463
39		H		-3.2699		-1.2854		0.1895		H		1		UNL1		0.2023
40		H		-5.2285		-2.7948		0.0876		H		1		UNL1		0.1606
41		H		-7.8479		0.6021		-0.2525		H		1		UNL1		0.1576
42		H		-5.8986		2.1069		-0.1513		H		1		UNL1		0.1362
43		H		1.6342		-1.0404		2.7982		H		1		UNL1		0.1502
44		H		4.0701		-1.4280		3.1409		H		1		UNL1		0.1422
45		H		6.2955		-1.8928		2.2120		H		1		UNL1		0.1361
46		H		7.7693		-2.3208		0.2699		H		1		UNL1		0.1366
47		H		6.8132		-2.3551		-2.0322		H		1		UNL1		0.1380
48		H		4.4112		-1.9658		-2.3918		H		1		UNL1		0.1583
@<TRIPOS>BOND
1		48		27		1
2		47		26		1
3		30		29		1
4		34		2		1
5		32		1		1
6		27		26		ar
7		27		28		ar
8		26		25		ar
9		2		1		2
10		2		3		1
11		1		33		1
12		29		28		ar
13		29		20		ar
14		28		23		ar
15		41		15		1
16		14		13		3
17		15		16		ar
18		15		12		ar
19		42		16		1
20		13		12		1
21		16		9		ar
22		12		11		ar
23		38		8		1
24		9		8		1
25		9		10		ar
26		11		40		1
27		11		10		ar
28		8		7		1
29		10		39		1
30		25		46		1
31		25		24		ar
32		6		7		ar
33		6		5		ar
34		7		17		ar
35		37		4		1
36		17		18		ar
37		5		4		1
38		5		31		ar
39		4		3		1
40		3		35		1
41		3		36		1
42		18		31		ar
43		18		19		1
44		19		20		1
45		20		21		ar
46		23		24		ar
47		23		22		ar
48		24		45		1
49		21		22		ar
50		21		43		1
51		22		44		1

