@<TRIPOS>MOLECULE
CFE-2008-ZL-8
 44 47 0 0 0
SMALL
MULLIKEN_CHARGES
****
Gaussian 16 #p B3LYP/6-31G* opt
@<TRIPOS>ATOM
1		C		7.4585		0.6527		0.3414		C.3		1		UNL1		-0.2861
2		N		6.2931		1.5117		0.4363		N.3		1		UNL1		-0.6241
3		C		5.0202		1.0644		0.4305		C.ar		1		UNL1		0.6932
4		N		4.8150		-0.2627		0.3706		N.ar		1		UNL1		-0.5702
5		C		3.5191		-0.6111		0.3732		C.ar		1		UNL1		0.7014
6		N		3.2942		-1.9625		0.2961		N.pl3		1		UNL1		-0.7691
7		C		2.0988		-2.6840		0.1710		C.ar		1		UNL1		0.3678
8		C		2.1089		-4.0255		0.5929		C.ar		1		UNL1		-0.1947
9		C		0.9790		-4.8191		0.4635		C.ar		1		UNL1		-0.1423
10		C		-0.1972		-4.2836		-0.0878		C.ar		1		UNL1		0.1326
11		C		-1.3698		-5.0944		-0.2175		C.1		1		UNL1		0.2301
12		N		-2.3213		-5.7565		-0.3236		N.1		1		UNL1		-0.4829
13		C		-0.2024		-2.9458		-0.5183		C.ar		1		UNL1		-0.1651
14		C		0.9308		-2.1513		-0.4018		C.ar		1		UNL1		-0.1398
15		N		2.4747		0.2252		0.4582		N.ar		1		UNL1		-0.5363
16		C		2.8340		1.5082		0.5029		C.ar		1		UNL1		0.6834
17		O		1.8565		2.4481		0.5875		O.3		1		UNL1		-0.5361
18		C		0.5298		2.0666		0.7073		C.ar		1		UNL1		0.3366
19		C		-0.0623		2.2071		1.9823		C.ar		1		UNL1		-0.1523
20		C		-1.3976		1.9437		2.1585		C.ar		1		UNL1		-0.1968
21		C		-2.2038		1.5240		1.0679		C.ar		1		UNL1		0.1546
22		C		-3.5850		1.2425		1.2397		C.ar		1		UNL1		-0.2246
23		C		-4.3438		0.8343		0.1708		C.ar		1		UNL1		0.0847
24		BR		-6.2008		0.4570		0.4066		Br		1		UNL1		-0.1176
25		C		-3.7770		0.6842		-1.1147		C.ar		1		UNL1		-0.1501
26		C		-2.4417		0.9543		-1.3066		C.ar		1		UNL1		-0.1933
27		C		-1.6150		1.3815		-0.2331		C.ar		1		UNL1		0.0980
28		C		-0.2283		1.6762		-0.3756		C.ar		1		UNL1		-0.0094
29		BR		0.6178		1.5085		-2.0710		Br		1		UNL1		-0.1009
30		N		4.0537		2.0127		0.4854		N.ar		1		UNL1		-0.5356
31		H		8.3519		1.2765		0.4145		H		1		UNL1		0.1580
32		H		7.4707		-0.0815		1.1532		H		1		UNL1		0.1763
33		H		7.4811		0.1083		-0.6097		H		1		UNL1		0.1731
34		H		6.3969		2.5155		0.4486		H		1		UNL1		0.3465
35		H		4.1479		-2.5009		0.3691		H		1		UNL1		0.3454
36		H		3.0110		-4.4413		1.0351		H		1		UNL1		0.1387
37		H		0.9975		-5.8522		0.7952		H		1		UNL1		0.1585
38		H		-1.1031		-2.5297		-0.9582		H		1		UNL1		0.1605
39		H		0.9179		-1.1342		-0.7673		H		1		UNL1		0.1961
40		H		0.5676		2.5320		2.8039		H		1		UNL1		0.1565
41		H		-1.8530		2.0514		3.1387		H		1		UNL1		0.1486
42		H		-4.0305		1.3517		2.2231		H		1		UNL1		0.1589
43		H		-4.3986		0.3579		-1.9411		H		1		UNL1		0.1620
44		H		-2.0043		0.8417		-2.2920		H		1		UNL1		0.1657
@<TRIPOS>BOND
1		44		26		1
2		29		28		1
3		43		25		1
4		26		25		ar
5		26		27		ar
6		25		23		ar
7		38		13		1
8		39		14		1
9		33		1		1
10		13		14		ar
11		13		10		ar
12		14		7		ar
13		28		27		ar
14		28		18		ar
15		12		11		3
16		27		21		ar
17		11		10		1
18		10		9		ar
19		23		24		1
20		23		22		ar
21		7		6		1
22		7		8		ar
23		6		35		1
24		6		5		1
25		1		31		1
26		1		2		1
27		1		32		1
28		4		5		ar
29		4		3		ar
30		5		15		ar
31		3		2		1
32		3		30		ar
33		2		34		1
34		15		16		ar
35		9		8		ar
36		9		37		1
37		30		16		ar
38		16		17		1
39		17		18		1
40		8		36		1
41		18		19		ar
42		21		22		ar
43		21		20		ar
44		22		42		1
45		19		20		ar
46		19		40		1
47		20		41		1

