@<TRIPOS>MOLECULE
CFE-2008-ZL-6
 41 44 0 0 0
SMALL
MULLIKEN_CHARGES
****
Gaussian 16 #p B3LYP/6-31G* opt
@<TRIPOS>ATOM
1		N		-7.6300		-3.4975		0.1584		N.1		1		UNL1		-0.4787
2		C		-6.5820		-2.9930		0.1179		C.1		1		UNL1		0.2315
3		C		-5.2915		-2.3753		0.0679		C.ar		1		UNL1		0.1345
4		C		-4.1301		-3.1612		-0.0277		C.ar		1		UNL1		-0.1394
5		C		-2.8844		-2.5567		-0.0760		C.ar		1		UNL1		-0.2038
6		C		-2.7599		-1.1549		-0.0305		C.ar		1		UNL1		0.3793
7		N		-1.4562		-0.6439		-0.0868		N.pl3		1		UNL1		-0.7755
8		C		-0.9600		0.6298		-0.0607		C.ar		1		UNL1		0.7224
9		N		-1.7774		1.6859		0.0340		N.ar		1		UNL1		-0.5454
10		C		-1.1316		2.8634		0.0499		C.ar		1		UNL1		0.6621
11		N		-1.8877		4.0391		0.1470		N.2		1		UNL1		-0.4372
12		N		-3.1240		3.8849		0.2124		N.2		1		UNL1		0.4739
13		N		-4.2552		3.9125		0.2797		N.2		1		UNL1		-0.2138
14		N		0.1794		3.0626		-0.0179		N.ar		1		UNL1		-0.4898
15		C		0.8760		1.9227		-0.1095		C.ar		1		UNL1		0.6769
16		O		2.2035		2.1096		-0.1689		O.3		1		UNL1		-0.5260
17		C		3.0591		1.0102		-0.3228		C.ar		1		UNL1		0.3484
18		C		3.1719		0.3914		-1.5883		C.ar		1		UNL1		-0.1397
19		C		4.0845		-0.6225		-1.7583		C.ar		1		UNL1		-0.2093
20		C		4.9154		-1.0526		-0.6875		C.ar		1		UNL1		0.1472
21		C		5.8661		-2.0970		-0.8380		C.ar		1		UNL1		-0.1937
22		C		6.6588		-2.4866		0.2182		C.ar		1		UNL1		-0.1339
23		C		6.5370		-1.8465		1.4758		C.ar		1		UNL1		-0.1355
24		C		5.6262		-0.8296		1.6548		C.ar		1		UNL1		-0.1888
25		C		4.7925		-0.4054		0.5857		C.ar		1		UNL1		0.1259
26		C		3.8419		0.6394		0.7396		C.ar		1		UNL1		-0.2308
27		N		0.3865		0.6892		-0.1366		N.ar		1		UNL1		-0.5373
28		C		-3.9189		-0.3661		0.0651		C.ar		1		UNL1		-0.1554
29		C		-5.1662		-0.9776		0.1133		C.ar		1		UNL1		-0.1534
30		H		-4.2117		-4.2426		-0.0635		H		1		UNL1		0.1631
31		H		-1.9921		-3.1739		-0.1495		H		1		UNL1		0.1433
32		H		-0.7138		-1.3296		-0.1558		H		1		UNL1		0.3561
33		H		2.5429		0.7295		-2.4050		H		1		UNL1		0.1446
34		H		4.1841		-1.1066		-2.7266		H		1		UNL1		0.1397
35		H		5.9581		-2.5848		-1.8055		H		1		UNL1		0.1338
36		H		7.3825		-3.2868		0.0903		H		1		UNL1		0.1350
37		H		7.1685		-2.1618		2.3018		H		1		UNL1		0.1359
38		H		5.5327		-0.3367		2.6194		H		1		UNL1		0.1359
39		H		3.7374		1.1497		1.6923		H		1		UNL1		0.1473
40		H		-3.8345		0.7099		0.1011		H		1		UNL1		0.1851
41		H		-6.0582		-0.3638		0.1872		H		1		UNL1		0.1656
@<TRIPOS>BOND
1		34		19		1
2		33		18		1
3		35		21		1
4		19		18		ar
5		19		20		ar
6		18		17		ar
7		21		20		ar
8		21		22		ar
9		20		25		ar
10		17		16		1
11		17		26		ar
12		16		15		1
13		32		7		1
14		31		5		1
15		27		15		ar
16		27		8		ar
17		15		14		ar
18		7		8		1
19		7		6		1
20		5		6		ar
21		5		4		ar
22		30		4		1
23		8		9		ar
24		6		28		ar
25		4		3		ar
26		14		10		ar
27		9		10		ar
28		10		11		1
29		28		40		1
30		28		29		ar
31		3		29		ar
32		3		2		1
33		36		22		1
34		29		41		1
35		2		1		3
36		11		12		2
37		12		13		2
38		22		23		ar
39		25		26		ar
40		25		24		ar
41		26		39		1
42		23		24		ar
43		23		37		1
44		24		38		1

