@<TRIPOS>MOLECULE
CFE-2008-ZL-24
 50 53 0 0 0
SMALL
MULLIKEN_CHARGES
****
Gaussian 16 #p B3LYP/6-31G* opt
@<TRIPOS>ATOM
1		C		2.1323		4.1647		1.5393		C.3		1		UNL1		-0.4435
2		C		2.4452		4.5835		0.1002		C.3		1		UNL1		-0.2521
3		C		1.9535		3.5851		-0.9592		C.3		1		UNL1		-0.1364
4		N		0.5037		3.4364		-0.9935		N.3		1		UNL1		-0.6343
5		C		-0.1962		2.3577		-0.5789		C.ar		1		UNL1		0.7083
6		N		-1.5338		2.4173		-0.7167		N.ar		1		UNL1		-0.5819
7		C		-2.1790		1.3193		-0.2945		C.ar		1		UNL1		0.7237
8		N		-3.5437		1.3878		-0.4347		N.pl3		1		UNL1		-0.7772
9		C		-4.5684		0.4857		-0.1337		C.ar		1		UNL1		0.3800
10		C		-5.8826		0.9114		-0.4117		C.ar		1		UNL1		-0.2057
11		C		-6.9677		0.0910		-0.1501		C.ar		1		UNL1		-0.1406
12		C		-6.7688		-1.1870		0.4007		C.ar		1		UNL1		0.1319
13		C		-7.8850		-2.0397		0.6745		C.1		1		UNL1		0.2279
14		N		-8.7947		-2.7313		0.8968		N.1		1		UNL1		-0.4851
15		C		-5.4585		-1.6111		0.6771		C.ar		1		UNL1		-0.1548
16		C		-4.3659		-0.7931		0.4170		C.ar		1		UNL1		-0.1599
17		N		-1.6163		0.2193		0.2271		N.ar		1		UNL1		-0.5441
18		C		-0.2892		0.3025		0.3011		C.ar		1		UNL1		0.6896
19		O		0.2853		-0.8018		0.8372		O.3		1		UNL1		-0.5350
20		C		1.6677		-0.8525		0.9603		C.ar		1		UNL1		0.3294
21		C		2.2226		-0.5476		2.2223		C.ar		1		UNL1		-0.1495
22		C		3.5742		-0.6742		2.4262		C.ar		1		UNL1		-0.2059
23		C		4.4305		-1.1115		1.3817		C.ar		1		UNL1		0.1542
24		C		5.8306		-1.2479		1.5787		C.ar		1		UNL1		-0.1973
25		C		6.6525		-1.6746		0.5617		C.ar		1		UNL1		-0.1305
26		C		6.1036		-1.9854		-0.7046		C.ar		1		UNL1		-0.1337
27		C		4.7511		-1.8662		-0.9330		C.ar		1		UNL1		-0.1876
28		C		3.8747		-1.4285		0.0955		C.ar		1		UNL1		0.0860
29		C		2.4661		-1.2857		-0.0756		C.ar		1		UNL1		-0.0027
30		BR		1.6445		-1.6846		-1.7472		Br		1		UNL1		-0.1028
31		N		0.4863		1.3091		-0.0641		N.ar		1		UNL1		-0.5373
32		H		2.5716		3.1877		1.7708		H		1		UNL1		0.1565
33		H		1.0520		4.0892		1.7041		H		1		UNL1		0.1512
34		H		2.5286		4.8947		2.2537		H		1		UNL1		0.1445
35		H		3.5303		4.6933		-0.0305		H		1		UNL1		0.1411
36		H		2.0115		5.5728		-0.1046		H		1		UNL1		0.1308
37		H		2.2884		3.9050		-1.9543		H		1		UNL1		0.1480
38		H		2.3700		2.5934		-0.7717		H		1		UNL1		0.1976
39		H		-0.0624		4.1913		-1.3567		H		1		UNL1		0.3351
40		H		-3.8327		2.2700		-0.8384		H		1		UNL1		0.3456
41		H		-6.0482		1.8983		-0.8378		H		1		UNL1		0.1357
42		H		-7.9739		0.4332		-0.3696		H		1		UNL1		0.1572
43		H		-5.2961		-2.5968		1.1015		H		1		UNL1		0.1601
44		H		-3.3610		-1.1267		0.6322		H		1		UNL1		0.2020
45		H		1.5531		-0.2231		3.0121		H		1		UNL1		0.1521
46		H		4.0051		-0.4427		3.3966		H		1		UNL1		0.1423
47		H		6.2408		-1.0070		2.5564		H		1		UNL1		0.1360
48		H		7.7215		-1.7743		0.7273		H		1		UNL1		0.1364
49		H		6.7558		-2.3224		-1.5055		H		1		UNL1		0.1378
50		H		4.3359		-2.1059		-1.9053		H		1		UNL1		0.1571
@<TRIPOS>BOND
1		37		3		1
2		50		27		1
3		30		29		1
4		49		26		1
5		39		4		1
6		4		3		1
7		4		5		1
8		3		38		1
9		3		2		1
10		27		26		ar
11		27		28		ar
12		40		8		1
13		41		10		1
14		6		5		ar
15		6		7		ar
16		26		25		ar
17		5		31		ar
18		8		7		1
19		8		9		1
20		10		11		ar
21		10		9		ar
22		42		11		1
23		7		17		ar
24		11		12		ar
25		9		16		ar
26		36		2		1
27		29		28		ar
28		29		20		ar
29		31		18		ar
30		35		2		1
31		28		23		ar
32		2		1		1
33		17		18		ar
34		18		19		1
35		12		13		1
36		12		15		ar
37		16		44		1
38		16		15		ar
39		25		48		1
40		25		24		ar
41		13		14		3
42		15		43		1
43		19		20		1
44		20		21		ar
45		23		24		ar
46		23		22		ar
47		1		33		1
48		1		32		1
49		1		34		1
50		24		47		1
51		21		22		ar
52		21		45		1
53		22		46		1

