@<TRIPOS>MOLECULE
CFE-2008-ZL-28
 47 50 0 0 0
SMALL
MULLIKEN_CHARGES
****
Gaussian 16 #p B3LYP/6-31G* opt
@<TRIPOS>ATOM
1		C		-1.2505		5.6666		1.0647		C.3		1		UNL1		-0.4424
2		C		-1.5812		5.1556		-0.3406		C.3		1		UNL1		-0.1278
3		N		-2.1207		3.7998		-0.3533		N.3		1		UNL1		-0.6279
4		C		-1.3736		2.6751		-0.3728		C.ar		1		UNL1		0.7058
5		N		-2.0518		1.5042		-0.2761		N.ar		1		UNL1		-0.5692
6		C		-1.2752		0.4261		-0.3216		C.ar		1		UNL1		0.7251
7		N		-1.8093		-0.8370		-0.2332		N.pl3		1		UNL1		-0.7794
8		C		-3.1193		-1.2995		-0.0933		C.ar		1		UNL1		0.3823
9		C		-4.2513		-0.4672		-0.0299		C.ar		1		UNL1		-0.1545
10		C		-5.5146		-1.0289		0.1073		C.ar		1		UNL1		-0.1532
11		C		-5.6872		-2.4206		0.1846		C.ar		1		UNL1		0.1321
12		C		-6.9944		-2.9855		0.3255		C.1		1		UNL1		0.2278
13		N		-8.0577		-3.4454		0.4399		N.1		1		UNL1		-0.4838
14		C		-4.5540		-3.2506		0.1210		C.ar		1		UNL1		-0.1404
15		C		-3.2922		-2.6960		-0.0157		C.ar		1		UNL1		-0.2045
16		N		0.0721		0.4189		-0.4529		N.ar		1		UNL1		-0.5577
17		C		0.5967		1.6345		-0.5284		C.ar		1		UNL1		0.6832
18		O		1.9403		1.7562		-0.6558		O.3		1		UNL1		-0.5325
19		C		2.7237		0.6120		-0.7128		C.ar		1		UNL1		0.3598
20		C		2.9840		0.0399		-1.9773		C.ar		1		UNL1		-0.1414
21		C		3.8356		-1.0308		-2.0848		C.ar		1		UNL1		-0.2072
22		C		4.4672		-1.5769		-0.9362		C.ar		1		UNL1		0.1540
23		C		5.3520		-2.6839		-1.0314		C.ar		1		UNL1		-0.1963
24		C		5.9610		-3.2043		0.0870		C.ar		1		UNL1		-0.1309
25		C		5.7090		-2.6342		1.3569		C.ar		1		UNL1		-0.1336
26		C		4.8579		-1.5596		1.4890		C.ar		1		UNL1		-0.1948
27		C		4.2134		-0.9998		0.3540		C.ar		1		UNL1		0.1225
28		C		3.3214		0.1122		0.4249		C.ar		1		UNL1		-0.1866
29		CL		2.9690		0.8642		1.9672		Cl		1		UNL1		0.0124
30		N		-0.0400		2.7998		-0.4967		N.ar		1		UNL1		-0.5335
31		H		-0.4844		5.0374		1.5278		H		1		UNL1		0.1752
32		H		-0.8681		6.6925		1.0141		H		1		UNL1		0.1506
33		H		-2.1376		5.6657		1.7084		H		1		UNL1		0.1432
34		H		-0.6834		5.1551		-0.9622		H		1		UNL1		0.1918
35		H		-2.3216		5.8033		-0.8229		H		1		UNL1		0.1483
36		H		-3.1051		3.6562		-0.1767		H		1		UNL1		0.3365
37		H		-1.0872		-1.5458		-0.2711		H		1		UNL1		0.3517
38		H		-4.1237		0.6037		-0.0884		H		1		UNL1		0.1794
39		H		-6.3846		-0.3815		0.1555		H		1		UNL1		0.1569
40		H		-4.6710		-4.3278		0.1798		H		1		UNL1		0.1592
41		H		-2.4228		-3.3475		-0.0631		H		1		UNL1		0.1403
42		H		2.5003		0.4744		-2.8459		H		1		UNL1		0.1496
43		H		4.0390		-1.4724		-3.0565		H		1		UNL1		0.1418
44		H		5.5390		-3.1133		-2.0127		H		1		UNL1		0.1359
45		H		6.6354		-4.0513		-0.0014		H		1		UNL1		0.1364
46		H		6.1924		-3.0481		2.2374		H		1		UNL1		0.1378
47		H		4.6709		-1.1289		2.4660		H		1		UNL1		0.1581
@<TRIPOS>BOND
1		43		21		1
2		42		20		1
3		21		20		ar
4		21		22		ar
5		44		23		1
6		20		19		ar
7		23		22		ar
8		23		24		ar
9		34		2		1
10		22		27		ar
11		35		2		1
12		19		18		1
13		19		28		ar
14		18		17		1
15		17		30		ar
16		17		16		ar
17		30		4		ar
18		16		6		ar
19		4		3		1
20		4		5		ar
21		3		2		1
22		3		36		1
23		2		1		1
24		6		5		ar
25		6		7		1
26		37		7		1
27		7		8		1
28		8		9		ar
29		8		15		ar
30		38		9		1
31		41		15		1
32		9		10		ar
33		15		14		ar
34		45		24		1
35		24		25		ar
36		10		39		1
37		10		11		ar
38		14		40		1
39		14		11		ar
40		11		12		1
41		12		13		3
42		27		28		ar
43		27		26		ar
44		28		29		1
45		32		1		1
46		1		31		1
47		1		33		1
48		25		26		ar
49		25		46		1
50		26		47		1

