@<TRIPOS>MOLECULE
CFE-2008-ZL-22
 41 44 0 0 0
SMALL
MULLIKEN_CHARGES
****
Gaussian 16 #p B3LYP/6-31G* opt
@<TRIPOS>ATOM
1		N		8.3458		-3.0296		0.3028		N.1		1		UNL1		-0.4843
2		C		7.4898		-2.2434		0.2375		C.1		1		UNL1		0.2284
3		C		6.4398		-1.2742		0.1568		C.ar		1		UNL1		0.1323
4		C		6.7308		0.0663		-0.1507		C.ar		1		UNL1		-0.1405
5		C		5.7094		0.9990		-0.2265		C.ar		1		UNL1		-0.2053
6		C		4.3699		0.6262		0.0011		C.ar		1		UNL1		0.3795
7		N		3.4138		1.6421		-0.1004		N.pl3		1		UNL1		-0.7763
8		C		2.0513		1.6481		0.0618		C.ar		1		UNL1		0.7212
9		N		1.4860		2.8524		-0.1374		N.ar		1		UNL1		-0.5624
10		C		0.1566		2.8617		0.0286		C.ar		1		UNL1		0.6667
11		N		-0.4879		4.0417		-0.1237		N.3		1		UNL1		-0.7702
12		N		-0.6059		1.7941		0.3570		N.ar		1		UNL1		-0.5216
13		C		0.0926		0.6810		0.5084		C.ar		1		UNL1		0.6896
14		O		-0.5557		-0.4609		0.8374		O.3		1		UNL1		-0.5340
15		C		-1.9401		-0.4483		0.9557		C.ar		1		UNL1		0.3288
16		C		-2.4811		-0.3905		2.2580		C.ar		1		UNL1		-0.1494
17		C		-3.8389		-0.4752		2.4407		C.ar		1		UNL1		-0.2041
18		C		-4.7151		-0.6210		1.3335		C.ar		1		UNL1		0.1543
19		C		-6.1220		-0.7096		1.5079		C.ar		1		UNL1		-0.1970
20		C		-6.9636		-0.8534		0.4296		C.ar		1		UNL1		-0.1305
21		C		-6.4285		-0.9157		-0.8786		C.ar		1		UNL1		-0.1336
22		C		-5.0701		-0.8339		-1.0871		C.ar		1		UNL1		-0.1877
23		C		-4.1733		-0.6851		0.0044		C.ar		1		UNL1		0.0868
24		C		-2.7579		-0.5971		-0.1431		C.ar		1		UNL1		-0.0008
25		BR		-1.9542		-0.6807		-1.8684		Br		1		UNL1		-0.1046
26		N		1.4101		0.5185		0.3871		N.ar		1		UNL1		-0.5405
27		C		4.0751		-0.7144		0.3087		C.ar		1		UNL1		-0.1598
28		C		5.1041		-1.6451		0.3832		C.ar		1		UNL1		-0.1546
29		H		7.7578		0.3683		-0.3283		H		1		UNL1		0.1579
30		H		5.9457		2.0335		-0.4648		H		1		UNL1		0.1366
31		H		3.7650		2.5609		-0.3398		H		1		UNL1		0.3469
32		H		0.0185		4.8233		-0.5100		H		1		UNL1		0.3494
33		H		-1.4959		4.0360		-0.1553		H		1		UNL1		0.3542
34		H		-1.7971		-0.2850		3.0936		H		1		UNL1		0.1521
35		H		-4.2597		-0.4322		3.4415		H		1		UNL1		0.1425
36		H		-6.5214		-0.6613		2.5181		H		1		UNL1		0.1362
37		H		-8.0376		-0.9199		0.5786		H		1		UNL1		0.1364
38		H		-7.0963		-1.0296		-1.7280		H		1		UNL1		0.1376
39		H		-4.6657		-0.8823		-2.0917		H		1		UNL1		0.1566
40		H		3.0500		-1.0077		0.4840		H		1		UNL1		0.2023
41		H		4.8709		-2.6783		0.6203		H		1		UNL1		0.1608
@<TRIPOS>BOND
1		39		22		1
2		25		24		1
3		38		21		1
4		22		21		ar
5		22		23		ar
6		21		20		ar
7		32		11		1
8		30		5		1
9		31		7		1
10		29		4		1
11		5		4		ar
12		5		6		ar
13		33		11		1
14		4		3		ar
15		24		23		ar
16		24		15		ar
17		9		10		ar
18		9		8		ar
19		11		10		1
20		7		6		1
21		7		8		1
22		6		27		ar
23		23		18		ar
24		10		12		ar
25		8		26		ar
26		3		2		1
27		3		28		ar
28		2		1		3
29		27		28		ar
30		27		40		1
31		12		13		ar
32		28		41		1
33		26		13		ar
34		20		37		1
35		20		19		ar
36		13		14		1
37		14		15		1
38		15		16		ar
39		18		19		ar
40		18		17		ar
41		19		36		1
42		16		17		ar
43		16		34		1
44		17		35		1

