@<TRIPOS>MOLECULE
CFE-2008-ZL-14
 50 53 0 0 0
SMALL
MULLIKEN_CHARGES
****
Gaussian 16 #p B3LYP/6-31G* opt
@<TRIPOS>ATOM
1		C		-5.7567		-4.6634		-0.9471		C.3		1		UNL1		-0.4625
2		C		-4.4275		-4.1919		-0.3515		C.3		1		UNL1		0.0556
3		C		-4.1881		-4.7476		1.0594		C.3		1		UNL1		-0.4396
4		N		-4.3975		-2.7258		-0.3627		N.3		1		UNL1		-0.6410
5		C		-3.2826		-1.9694		-0.4274		C.ar		1		UNL1		0.7120
6		N		-3.4614		-0.6276		-0.3336		N.ar		1		UNL1		-0.5707
7		C		-2.3371		0.0755		-0.4259		C.ar		1		UNL1		0.7266
8		N		-2.3498		1.4471		-0.3480		N.pl3		1		UNL1		-0.7797
9		C		-3.3818		2.3727		-0.1798		C.ar		1		UNL1		0.3821
10		C		-3.0107		3.7313		-0.1279		C.ar		1		UNL1		-0.2045
11		C		-3.9632		4.7238		0.0337		C.ar		1		UNL1		-0.1404
12		C		-5.3230		4.3854		0.1488		C.ar		1		UNL1		0.1322
13		C		-6.3137		5.4046		0.3158		C.1		1		UNL1		0.2281
14		N		-7.1195		6.2336		0.4515		N.1		1		UNL1		-0.4834
15		C		-5.6926		3.0314		0.0970		C.ar		1		UNL1		-0.1532
16		C		-4.7415		2.0318		-0.0649		C.ar		1		UNL1		-0.1545
17		N		-1.0929		-0.4299		-0.5994		N.ar		1		UNL1		-0.5569
18		C		-1.0724		-1.7535		-0.6626		C.ar		1		UNL1		0.6847
19		O		0.1215		-2.3768		-0.8339		O.3		1		UNL1		-0.5350
20		C		1.2823		-1.6203		-0.8823		C.ar		1		UNL1		0.3318
21		C		1.8420		-1.3668		-2.1536		C.ar		1		UNL1		-0.1506
22		C		3.0416		-0.7086		-2.2609		C.ar		1		UNL1		-0.2009
23		C		3.7355		-0.2739		-1.1012		C.ar		1		UNL1		0.1542
24		C		4.9764		0.4096		-1.2015		C.ar		1		UNL1		-0.2261
25		C		5.6310		0.8192		-0.0666		C.ar		1		UNL1		0.0836
26		BR		7.2994		1.7401		-0.2067		Br		1		UNL1		-0.1221
27		C		5.0953		0.5743		1.2174		C.ar		1		UNL1		-0.1508
28		C		3.8951		-0.0868		1.3396		C.ar		1		UNL1		-0.1882
29		C		3.1779		-0.5307		0.1967		C.ar		1		UNL1		0.0939
30		C		1.9327		-1.2200		0.2654		C.ar		1		UNL1		-0.0010
31		BR		1.1292		-1.6054		1.9474		Br		1		UNL1		-0.0984
32		N		-2.0988		-2.5909		-0.5871		N.ar		1		UNL1		-0.5345
33		H		-5.8920		-4.2827		-1.9648		H		1		UNL1		0.1607
34		H		-6.6056		-4.3271		-0.3369		H		1		UNL1		0.1421
35		H		-5.7899		-5.7570		-0.9809		H		1		UNL1		0.1601
36		H		-3.6056		-4.5154		-0.9960		H		1		UNL1		0.1797
37		H		-4.1771		-5.8435		1.0425		H		1		UNL1		0.1479
38		H		-3.2254		-4.4017		1.4468		H		1		UNL1		0.1726
39		H		-4.9789		-4.4253		1.7479		H		1		UNL1		0.1388
40		H		-5.2508		-2.2186		-0.1690		H		1		UNL1		0.3329
41		H		-1.4153		1.8297		-0.4230		H		1		UNL1		0.3514
42		H		-1.9618		4.0045		-0.2155		H		1		UNL1		0.1406
43		H		-3.6618		5.7655		0.0721		H		1		UNL1		0.1597
44		H		-6.7405		2.7624		0.1850		H		1		UNL1		0.1570
45		H		-5.0307		0.9920		-0.1035		H		1		UNL1		0.1795
46		H		1.3007		-1.7114		-3.0285		H		1		UNL1		0.1554
47		H		3.4748		-0.5132		-3.2377		H		1		UNL1		0.1475
48		H		5.3980		0.6027		-2.1825		H		1		UNL1		0.1577
49		H		5.6336		0.9088		2.0972		H		1		UNL1		0.1599
50		H		3.4821		-0.2754		2.3239		H		1		UNL1		0.1659
@<TRIPOS>BOND
1		47		22		1
2		46		21		1
3		22		21		ar
4		22		23		ar
5		48		24		1
6		21		20		ar
7		33		1		1
8		24		23		ar
9		24		25		ar
10		23		29		ar
11		36		2		1
12		35		1		1
13		1		2		1
14		1		34		1
15		20		19		1
16		20		30		ar
17		19		18		1
18		18		17		ar
19		18		32		ar
20		17		7		ar
21		32		5		ar
22		5		4		1
23		5		6		ar
24		7		8		1
25		7		6		ar
26		41		8		1
27		4		2		1
28		4		40		1
29		2		3		1
30		8		9		1
31		42		10		1
32		26		25		1
33		9		10		ar
34		9		16		ar
35		10		11		ar
36		45		16		1
37		25		27		ar
38		16		15		ar
39		11		43		1
40		11		12		ar
41		15		12		ar
42		15		44		1
43		12		13		1
44		29		30		ar
45		29		28		ar
46		30		31		1
47		13		14		3
48		37		3		1
49		3		38		1
50		3		39		1
51		27		28		ar
52		27		49		1
53		28		50		1

