@<TRIPOS>MOLECULE
CFE-2008-ZL-25
 44 47 0 0 0
SMALL
MULLIKEN_CHARGES
****
Gaussian 16 #p B3LYP/6-31G* opt
@<TRIPOS>ATOM
1		C		2.0348		4.0597		-0.2900		C.3		1		UNL1		-0.2984
2		N		0.5924		3.8937		-0.2617		N.3		1		UNL1		-0.6243
3		C		-0.0405		2.7094		-0.1146		C.ar		1		UNL1		0.6980
4		N		-1.3811		2.7200		-0.2260		N.ar		1		UNL1		-0.5782
5		C		-1.9545		1.5197		-0.0510		C.ar		1		UNL1		0.7235
6		N		-3.3231		1.5347		-0.1638		N.pl3		1		UNL1		-0.7770
7		C		-4.2883		0.5280		-0.0619		C.ar		1		UNL1		0.3799
8		C		-5.6301		0.9250		-0.2278		C.ar		1		UNL1		-0.2056
9		C		-6.6610		0.0034		-0.1458		C.ar		1		UNL1		-0.1406
10		C		-6.3781		-1.3503		0.1061		C.ar		1		UNL1		0.1320
11		C		-7.4380		-2.3080		0.1930		C.1		1		UNL1		0.2281
12		N		-8.3021		-3.0848		0.2638		N.1		1		UNL1		-0.4849
13		C		-5.0402		-1.7456		0.2707		C.ar		1		UNL1		-0.1547
14		C		-4.0016		-0.8262		0.1895		C.ar		1		UNL1		-0.1599
15		N		-1.3191		0.3683		0.2126		N.ar		1		UNL1		-0.5419
16		C		0.0030		0.5099		0.2899		C.ar		1		UNL1		0.6875
17		O		0.6484		-0.6509		0.5541		O.3		1		UNL1		-0.5322
18		C		2.0313		-0.6458		0.6786		C.ar		1		UNL1		0.3599
19		C		2.5920		-0.3823		1.9475		C.ar		1		UNL1		-0.1404
20		C		3.9494		-0.4695		2.1295		C.ar		1		UNL1		-0.2078
21		C		4.8068		-0.8264		1.0552		C.ar		1		UNL1		0.1544
22		C		6.2131		-0.9233		1.2287		C.ar		1		UNL1		-0.1964
23		C		7.0351		-1.2729		0.1825		C.ar		1		UNL1		-0.1308
24		C		6.4803		-1.5430		-1.0904		C.ar		1		UNL1		-0.1336
25		C		5.1212		-1.4602		-1.2972		C.ar		1		UNL1		-0.1946
26		C		4.2461		-1.1013		-0.2378		C.ar		1		UNL1		0.1225
27		C		2.8304		-0.9981		-0.3882		C.ar		1		UNL1		-0.1872
28		CL		2.0812		-1.3187		-1.9385		Cl		1		UNL1		0.0142
29		N		0.7141		1.6167		0.1438		N.ar		1		UNL1		-0.5392
30		H		2.2784		5.0851		0.0006		H		1		UNL1		0.1581
31		H		2.4919		3.3668		0.4174		H		1		UNL1		0.2004
32		H		2.4555		3.8626		-1.2851		H		1		UNL1		0.1676
33		H		-0.0038		4.6629		-0.5315		H		1		UNL1		0.3396
34		H		-3.6705		2.4650		-0.3595		H		1		UNL1		0.3458
35		H		-5.8604		1.9699		-0.4227		H		1		UNL1		0.1358
36		H		-7.6894		0.3245		-0.2757		H		1		UNL1		0.1574
37		H		-4.8130		-2.7891		0.4644		H		1		UNL1		0.1605
38		H		-2.9751		-1.1384		0.3170		H		1		UNL1		0.2023
39		H		1.9226		-0.1206		2.7603		H		1		UNL1		0.1499
40		H		4.3843		-0.2692		3.1049		H		1		UNL1		0.1418
41		H		6.6283		-0.7149		2.2117		H		1		UNL1		0.1358
42		H		8.1090		-1.3433		0.3304		H		1		UNL1		0.1364
43		H		7.1331		-1.8196		-1.9137		H		1		UNL1		0.1378
44		H		4.7047		-1.6697		-2.2757		H		1		UNL1		0.1583
@<TRIPOS>BOND
1		44		25		1
2		28		27		1
3		43		24		1
4		25		24		ar
5		25		26		ar
6		32		1		1
7		24		23		ar
8		33		2		1
9		35		8		1
10		27		26		ar
11		27		18		ar
12		34		6		1
13		1		2		1
14		1		30		1
15		1		31		1
16		36		9		1
17		2		3		1
18		26		21		ar
19		8		9		ar
20		8		7		ar
21		4		3		ar
22		4		5		ar
23		6		7		1
24		6		5		1
25		9		10		ar
26		3		29		ar
27		7		14		ar
28		5		15		ar
29		10		11		1
30		10		13		ar
31		29		16		ar
32		23		42		1
33		23		22		ar
34		14		13		ar
35		14		38		1
36		11		12		3
37		15		16		ar
38		13		37		1
39		16		17		1
40		17		18		1
41		18		19		ar
42		21		22		ar
43		21		20		ar
44		22		41		1
45		19		20		ar
46		19		39		1
47		20		40		1

