@<TRIPOS>MOLECULE
CFE-2008-ZL-16
 41 44 0 0 0
SMALL
MULLIKEN_CHARGES
****
Gaussian 16 #p B3LYP/6-31G* opt
@<TRIPOS>ATOM
1		N		8.3673		-2.7031		0.3757		N.1		1		UNL1		-0.4825
2		C		7.2925		-2.2583		0.3318		C.1		1		UNL1		0.2287
3		C		5.9710		-1.7115		0.2777		C.ar		1		UNL1		0.1328
4		C		5.7757		-0.3247		0.1735		C.ar		1		UNL1		-0.1528
5		C		4.4985		0.2197		0.1200		C.ar		1		UNL1		-0.1541
6		C		3.3762		-0.6261		0.1704		C.ar		1		UNL1		0.3811
7		N		2.0518		-0.1818		0.1255		N.pl3		1		UNL1		-0.7782
8		C		1.4964		1.0685		0.0183		C.ar		1		UNL1		0.7216
9		N		2.2635		2.1541		-0.0747		N.ar		1		UNL1		-0.5507
10		C		1.5645		3.3061		-0.1739		C.ar		1		UNL1		0.6731
11		N		2.2780		4.4501		-0.2518		N.3		1		UNL1		-0.7713
12		N		0.2254		3.4220		-0.1914		N.ar		1		UNL1		-0.5191
13		C		-0.4023		2.2545		-0.0890		C.ar		1		UNL1		0.6726
14		O		-1.7499		2.3659		-0.0918		O.3		1		UNL1		-0.5350
15		C		-2.5499		1.2256		-0.0594		C.ar		1		UNL1		0.3614
16		C		-2.5793		0.3559		-1.1727		C.ar		1		UNL1		-0.1405
17		C		-3.4491		-0.7068		-1.1640		C.ar		1		UNL1		-0.1603
18		CL		-3.4556		-1.7757		-2.5648		Cl		1		UNL1		-0.0108
19		C		-4.3341		-0.9615		-0.0740		C.ar		1		UNL1		0.1498
20		C		-5.2476		-2.0467		-0.0287		C.ar		1		UNL1		-0.1963
21		C		-6.0746		-2.2255		1.0579		C.ar		1		UNL1		-0.1335
22		C		-6.0292		-1.3286		2.1508		C.ar		1		UNL1		-0.1313
23		C		-5.1549		-0.2663		2.1364		C.ar		1		UNL1		-0.1910
24		C		-4.2850		-0.0492		1.0344		C.ar		1		UNL1		0.1297
25		C		-3.3778		1.0426		1.0169		C.ar		1		UNL1		-0.2305
26		N		0.1443		1.0494		0.0196		N.ar		1		UNL1		-0.5559
27		C		3.5716		-2.0175		0.2751		C.ar		1		UNL1		-0.2045
28		C		4.8473		-2.5549		0.3281		C.ar		1		UNL1		-0.1401
29		H		6.6385		0.3328		0.1346		H		1		UNL1		0.1579
30		H		4.3539		1.2870		0.0400		H		1		UNL1		0.1801
31		H		1.3393		-0.8991		0.1828		H		1		UNL1		0.3531
32		H		3.2804		4.4058		-0.3431		H		1		UNL1		0.3515
33		H		1.7906		5.3166		-0.4189		H		1		UNL1		0.3570
34		H		-1.9224		0.5315		-2.0154		H		1		UNL1		0.1642
35		H		-5.2871		-2.7359		-0.8647		H		1		UNL1		0.1584
36		H		-6.7681		-3.0615		1.0759		H		1		UNL1		0.1378
37		H		-6.6875		-1.4808		3.0016		H		1		UNL1		0.1376
38		H		-5.1148		0.4273		2.9725		H		1		UNL1		0.1380
39		H		-3.3409		1.7369		1.8502		H		1		UNL1		0.1492
40		H		2.7095		-2.6792		0.3144		H		1		UNL1		0.1423
41		H		4.9821		-3.6285		0.4085		H		1		UNL1		0.1607
@<TRIPOS>BOND
1		18		17		1
2		34		16		1
3		16		17		ar
4		16		15		ar
5		17		19		ar
6		35		20		1
7		33		11		1
8		32		11		1
9		11		10		1
10		12		10		ar
11		12		13		ar
12		10		9		ar
13		14		13		1
14		14		15		1
15		13		26		ar
16		9		8		ar
17		19		20		ar
18		19		24		ar
19		15		25		ar
20		20		21		ar
21		8		26		ar
22		8		7		1
23		30		5		1
24		5		6		ar
25		5		4		ar
26		7		6		1
27		7		31		1
28		29		4		1
29		6		27		ar
30		4		3		ar
31		27		40		1
32		27		28		ar
33		3		28		ar
34		3		2		1
35		28		41		1
36		2		1		3
37		25		24		ar
38		25		39		1
39		24		23		ar
40		21		36		1
41		21		22		ar
42		23		22		ar
43		23		38		1
44		22		37		1

