@<TRIPOS>MOLECULE
CFE-2008-ZL-27
 41 44 0 0 0
SMALL
MULLIKEN_CHARGES
****
Gaussian 16 #p B3LYP/6-31G* opt
@<TRIPOS>ATOM
1		N		8.1497		-3.2114		0.2787		N.1		1		UNL1		-0.4797
2		C		7.0780		-2.7657		0.1933		C.1		1		UNL1		0.2310
3		C		5.7585		-2.2205		0.0873		C.ar		1		UNL1		0.1346
4		C		5.5532		-0.8321		0.1325		C.ar		1		UNL1		-0.1535
5		C		4.2776		-0.2896		0.0302		C.ar		1		UNL1		-0.1588
6		C		3.1708		-1.1427		-0.1214		C.ar		1		UNL1		0.3771
7		N		1.8439		-0.7040		-0.2357		N.pl3		1		UNL1		-0.7749
8		C		1.2843		0.5420		-0.2260		C.ar		1		UNL1		0.7292
9		N		2.0485		1.6317		-0.0878		N.ar		1		UNL1		-0.5323
10		C		1.3559		2.7737		-0.0965		C.ar		1		UNL1		0.6695
11		N		2.1494		3.9170		0.0441		N.2		1		UNL1		-0.4470
12		N		1.5309		5.0042		0.0446		N.2		1		UNL1		0.4752
13		N		1.1262		6.0611		0.0642		N.2		1		UNL1		-0.2009
14		N		0.0335		2.9133		-0.2221		N.ar		1		UNL1		-0.5133
15		C		-0.6040		1.7453		-0.3485		C.ar		1		UNL1		0.6892
16		O		-1.9394		1.8719		-0.4758		O.3		1		UNL1		-0.5248
17		C		-2.7244		0.7309		-0.6168		C.ar		1		UNL1		0.3516
18		C		-3.0362		0.2982		-1.9232		C.ar		1		UNL1		-0.1438
19		C		-3.8865		-0.7635		-2.1069		C.ar		1		UNL1		-0.2065
20		C		-4.4626		-1.4358		-0.9969		C.ar		1		UNL1		0.1546
21		C		-5.3449		-2.5351		-1.1720		C.ar		1		UNL1		-0.1958
22		C		-5.9007		-3.1779		-0.0903		C.ar		1		UNL1		-0.1301
23		C		-5.5958		-2.7447		1.2214		C.ar		1		UNL1		-0.1330
24		C		-4.7453		-1.6822		1.4315		C.ar		1		UNL1		-0.1945
25		C		-4.1549		-0.9980		0.3358		C.ar		1		UNL1		0.1219
26		C		-3.2670		0.1091		0.4874		C.ar		1		UNL1		-0.1832
27		CL		-2.8515		0.6975		2.0831		Cl		1		UNL1		0.0180
28		N		-0.0606		0.5380		-0.3663		N.ar		1		UNL1		-0.5380
29		C		3.3746		-2.5349		-0.1664		C.ar		1		UNL1		-0.2041
30		C		4.6487		-3.0696		-0.0638		C.ar		1		UNL1		-0.1398
31		H		6.4055		-0.1705		0.2495		H		1		UNL1		0.1644
32		H		4.1290		0.7799		0.0668		H		1		UNL1		0.2024
33		H		1.1440		-1.4288		-0.3387		H		1		UNL1		0.3552
34		H		-2.5956		0.8295		-2.7604		H		1		UNL1		0.1525
35		H		-4.1315		-1.0999		-3.1106		H		1		UNL1		0.1452
36		H		-5.5733		-2.8587		-2.1845		H		1		UNL1		0.1384
37		H		-6.5741		-4.0171		-0.2396		H		1		UNL1		0.1393
38		H		-6.0378		-3.2552		2.0724		H		1		UNL1		0.1407
39		H		-4.5179		-1.3567		2.4401		H		1		UNL1		0.1601
40		H		2.5223		-3.2002		-0.2827		H		1		UNL1		0.1419
41		H		4.7923		-4.1445		-0.0998		H		1		UNL1		0.1619
@<TRIPOS>BOND
1		35		19		1
2		34		18		1
3		36		21		1
4		19		18		ar
5		19		20		ar
6		18		17		ar
7		21		20		ar
8		21		22		ar
9		20		25		ar
10		17		16		1
11		17		26		ar
12		16		15		1
13		28		15		ar
14		28		8		ar
15		15		14		ar
16		33		7		1
17		40		29		1
18		37		22		1
19		7		8		1
20		7		6		1
21		8		9		ar
22		14		10		ar
23		29		6		ar
24		29		30		ar
25		6		5		ar
26		41		30		1
27		10		9		ar
28		10		11		1
29		22		23		ar
30		30		3		ar
31		5		32		1
32		5		4		ar
33		11		12		2
34		12		13		2
35		3		4		ar
36		3		2		1
37		4		31		1
38		2		1		3
39		25		26		ar
40		25		24		ar
41		26		27		1
42		23		24		ar
43		23		38		1
44		24		39		1

