@<TRIPOS>MOLECULE
CFE-2008-ZL-4
 44 47 0 0 0
SMALL
MULLIKEN_CHARGES
****
Gaussian 16 #p B3LYP/6-31G* opt
@<TRIPOS>ATOM
1		C		1.3675		3.5890		0.3652		C.3		1		UNL1		-0.2923
2		N		0.2347		2.6988		0.1943		N.3		1		UNL1		-0.6231
3		C		0.3308		1.3612		0.0465		C.ar		1		UNL1		0.6966
4		N		1.5612		0.8121		0.0350		N.ar		1		UNL1		-0.5645
5		C		1.5531		-0.5166		-0.1176		C.ar		1		UNL1		0.7173
6		N		2.7322		-1.2225		-0.1496		N.pl3		1		UNL1		-0.7776
7		C		4.0699		-0.8367		-0.0500		C.ar		1		UNL1		0.3819
8		C		5.0318		-1.8636		-0.1337		C.ar		1		UNL1		-0.2038
9		C		6.3849		-1.5813		-0.0453		C.ar		1		UNL1		-0.1407
10		C		6.8198		-0.2557		0.1303		C.ar		1		UNL1		0.1323
11		C		8.2157		0.0451		0.2223		C.1		1		UNL1		0.2276
12		N		9.3513		0.2904		0.2972		N.1		1		UNL1		-0.4842
13		C		5.8613		0.7675		0.2138		C.ar		1		UNL1		-0.1553
14		C		4.5029		0.4901		0.1259		C.ar		1		UNL1		-0.1599
15		N		0.4661		-1.2991		-0.2531		N.ar		1		UNL1		-0.5507
16		C		-0.6794		-0.6204		-0.2213		C.ar		1		UNL1		0.6742
17		O		-1.7711		-1.4056		-0.3421		O.3		1		UNL1		-0.5370
18		C		-3.0437		-0.8333		-0.4037		C.ar		1		UNL1		0.3558
19		C		-3.4357		-0.1055		-1.5515		C.ar		1		UNL1		-0.1348
20		C		-4.7253		0.3601		-1.6443		C.ar		1		UNL1		-0.2102
21		C		-5.6723		0.1191		-0.6110		C.ar		1		UNL1		0.1468
22		C		-7.0108		0.5879		-0.6834		C.ar		1		UNL1		-0.1941
23		C		-7.9039		0.3333		0.3332		C.ar		1		UNL1		-0.1348
24		C		-7.4969		-0.4052		1.4711		C.ar		1		UNL1		-0.1362
25		C		-6.2065		-0.8753		1.5715		C.ar		1		UNL1		-0.1894
26		C		-5.2608		-0.6283		0.5406		C.ar		1		UNL1		0.1278
27		C		-3.9219		-1.0979		0.6160		C.ar		1		UNL1		-0.2364
28		N		-0.8355		0.6892		-0.0776		N.ar		1		UNL1		-0.5426
29		H		2.0482		3.5312		-0.4908		H		1		UNL1		0.1781
30		H		1.9338		3.3471		1.2717		H		1		UNL1		0.1764
31		H		0.9912		4.6109		0.4470		H		1		UNL1		0.1607
32		H		-0.7068		3.0618		0.2174		H		1		UNL1		0.3474
33		H		2.5612		-2.2133		-0.2711		H		1		UNL1		0.3518
34		H		4.7071		-2.8925		-0.2696		H		1		UNL1		0.1407
35		H		7.1130		-2.3831		-0.1116		H		1		UNL1		0.1593
36		H		6.1892		1.7934		0.3497		H		1		UNL1		0.1558
37		H		3.7700		1.2807		0.1911		H		1		UNL1		0.1889
38		H		-2.7135		0.0718		-2.3410		H		1		UNL1		0.1420
39		H		-5.0386		0.9200		-2.5221		H		1		UNL1		0.1356
40		H		-7.3198		1.1534		-1.5595		H		1		UNL1		0.1309
41		H		-8.9254		0.6976		0.2657		H		1		UNL1		0.1316
42		H		-8.2100		-0.6010		2.2674		H		1		UNL1		0.1324
43		H		-5.8932		-1.4431		2.4443		H		1		UNL1		0.1330
44		H		-3.5904		-1.6722		1.4759		H		1		UNL1		0.1430
@<TRIPOS>BOND
1		39		20		1
2		38		19		1
3		20		19		ar
4		20		21		ar
5		40		22		1
6		19		18		ar
7		22		21		ar
8		22		23		ar
9		21		26		ar
10		29		1		1
11		18		17		1
12		18		27		ar
13		17		16		1
14		33		6		1
15		34		8		1
16		15		16		ar
17		15		5		ar
18		16		28		ar
19		6		5		1
20		6		7		1
21		8		7		ar
22		8		9		ar
23		5		4		ar
24		35		9		1
25		28		3		ar
26		7		14		ar
27		9		10		ar
28		4		3		ar
29		3		2		1
30		14		37		1
31		14		13		ar
32		10		13		ar
33		10		11		1
34		2		32		1
35		2		1		1
36		13		36		1
37		11		12		3
38		41		23		1
39		23		24		ar
40		1		31		1
41		1		30		1
42		26		27		ar
43		26		25		ar
44		27		44		1
45		24		25		ar
46		24		42		1
47		25		43		1

