@<TRIPOS>MOLECULE
CFE-2008-ZL-19
 48 51 0 0 0
SMALL
MULLIKEN_CHARGES
****
Gaussian 16 #p B3LYP/6-31G* opt
@<TRIPOS>ATOM
1		C		0.9233		6.8031		0.1777		C.2		1		UNL1		-0.3367
2		C		0.3151		5.6656		-0.1576		C.2		1		UNL1		-0.0547
3		C		-0.2214		4.6697		0.8370		C.3		1		UNL1		-0.1751
4		N		0.3913		3.3579		0.6653		N.3		1		UNL1		-0.6357
5		C		-0.2663		2.1916		0.4815		C.ar		1		UNL1		0.7071
6		N		-1.6063		2.1898		0.4564		N.ar		1		UNL1		-0.5794
7		C		-2.1516		0.9743		0.2667		C.ar		1		UNL1		0.7251
8		N		-3.5237		0.9828		0.2416		N.pl3		1		UNL1		-0.7760
9		C		-4.4690		-0.0348		0.0748		C.ar		1		UNL1		0.3794
10		C		-4.1506		-1.3908		-0.1212		C.ar		1		UNL1		-0.1597
11		C		-5.1708		-2.3213		-0.2763		C.ar		1		UNL1		-0.1545
12		C		-6.5208		-1.9349		-0.2414		C.ar		1		UNL1		0.1325
13		C		-7.5613		-2.9043		-0.4021		C.1		1		UNL1		0.2286
14		N		-8.4095		-3.6909		-0.5323		N.1		1		UNL1		-0.4837
15		C		-6.8354		-0.5788		-0.0457		C.ar		1		UNL1		-0.1404
16		C		-5.8228		0.3537		0.1096		C.ar		1		UNL1		-0.2055
17		N		-1.4866		-0.1760		0.1096		N.ar		1		UNL1		-0.5436
18		C		-0.1598		-0.0243		0.1585		C.ar		1		UNL1		0.6780
19		O		0.5074		-1.1914		0.0118		O.3		1		UNL1		-0.5366
20		C		1.9005		-1.2055		-0.0231		C.ar		1		UNL1		0.3620
21		C		2.5838		-0.6161		-1.1103		C.ar		1		UNL1		-0.1380
22		C		3.9505		-0.7312		-1.1779		C.ar		1		UNL1		-0.1598
23		CL		4.7725		0.0202		-2.5434		Cl		1		UNL1		-0.0114
24		C		4.7084		-1.4333		-0.1936		C.ar		1		UNL1		0.1501
25		C		6.1201		-1.5754		-0.2295		C.ar		1		UNL1		-0.1961
26		C		6.7825		-2.2727		0.7563		C.ar		1		UNL1		-0.1335
27		C		6.0666		-2.8620		1.8245		C.ar		1		UNL1		-0.1314
28		C		4.6973		-2.7424		1.8871		C.ar		1		UNL1		-0.1910
29		C		3.9786		-2.0298		0.8902		C.ar		1		UNL1		0.1299
30		C		2.5662		-1.8999		0.9525		C.ar		1		UNL1		-0.2309
31		N		0.5206		1.0939		0.3365		N.ar		1		UNL1		-0.5439
32		H		1.2851		7.5016		-0.5716		H		1		UNL1		0.1526
33		H		1.0752		7.0845		1.2181		H		1		UNL1		0.1441
34		H		0.1812		5.4029		-1.2069		H		1		UNL1		0.1427
35		H		-0.0560		5.0320		1.8608		H		1		UNL1		0.1566
36		H		-1.2975		4.5254		0.7070		H		1		UNL1		0.1970
37		H		1.4000		3.2842		0.6705		H		1		UNL1		0.3449
38		H		-3.8940		1.9156		0.3734		H		1		UNL1		0.3460
39		H		-3.1144		-1.6958		-0.1490		H		1		UNL1		0.2014
40		H		-4.9197		-3.3664		-0.4273		H		1		UNL1		0.1609
41		H		-7.8736		-0.2646		-0.0165		H		1		UNL1		0.1584
42		H		-6.0775		1.4002		0.2605		H		1		UNL1		0.1367
43		H		2.0314		-0.0821		-1.8731		H		1		UNL1		0.1642
44		H		6.6730		-1.1267		-1.0471		H		1		UNL1		0.1581
45		H		7.8634		-2.3719		0.7130		H		1		UNL1		0.1374
46		H		6.6013		-3.4100		2.5953		H		1		UNL1		0.1372
47		H		4.1404		-3.1931		2.7046		H		1		UNL1		0.1379
48		H		2.0104		-2.3535		1.7669		H		1		UNL1		0.1489
@<TRIPOS>BOND
1		23		22		1
2		43		21		1
3		34		2		1
4		22		21		ar
5		22		24		ar
6		21		20		ar
7		44		25		1
8		32		1		1
9		14		13		3
10		40		11		1
11		13		12		1
12		11		12		ar
13		11		10		ar
14		12		15		ar
15		25		24		ar
16		25		26		ar
17		24		29		ar
18		2		1		2
19		2		3		1
20		39		10		1
21		10		9		ar
22		15		41		1
23		15		16		ar
24		20		19		1
25		20		30		ar
26		19		18		1
27		9		16		ar
28		9		8		1
29		16		42		1
30		17		18		ar
31		17		7		ar
32		18		31		ar
33		1		33		1
34		8		7		1
35		8		38		1
36		7		6		ar
37		31		5		ar
38		6		5		ar
39		5		4		1
40		4		37		1
41		4		3		1
42		36		3		1
43		45		26		1
44		26		27		ar
45		3		35		1
46		29		30		ar
47		29		28		ar
48		30		48		1
49		27		28		ar
50		27		46		1
51		28		47		1

