@<TRIPOS>MOLECULE
CFE-2008-ZL-20
 50 53 0 0 0
SMALL
MULLIKEN_CHARGES
****
Gaussian 16 #p B3LYP/6-31G* opt
@<TRIPOS>ATOM
1		C		1.8561		5.0795		-1.7906		C.3		1		UNL1		-0.4513
2		C		2.3584		3.8342		-1.0546		C.3		1		UNL1		-0.2505
3		C		1.7885		3.6773		0.3635		C.3		1		UNL1		-0.1311
4		N		0.3369		3.5290		0.4089		N.3		1		UNL1		-0.6319
5		C		-0.3286		2.3608		0.2813		C.ar		1		UNL1		0.7020
6		N		-1.6725		2.4224		0.2869		N.ar		1		UNL1		-0.5794
7		C		-2.2770		1.2298		0.1737		C.ar		1		UNL1		0.7227
8		N		-3.6485		1.2988		0.1776		N.pl3		1		UNL1		-0.7765
9		C		-4.6421		0.3194		0.0821		C.ar		1		UNL1		0.3798
10		C		-5.9760		0.7720		0.1196		C.ar		1		UNL1		-0.2056
11		C		-7.0332		-0.1188		0.0317		C.ar		1		UNL1		-0.1405
12		C		-6.7855		-1.4965		-0.0970		C.ar		1		UNL1		0.1322
13		C		-7.8724		-2.4229		-0.1891		C.1		1		UNL1		0.2282
14		N		-8.7582		-3.1745		-0.2643		N.1		1		UNL1		-0.4843
15		C		-5.4555		-1.9471		-0.1339		C.ar		1		UNL1		-0.1546
16		C		-4.3907		-1.0588		-0.0462		C.ar		1		UNL1		-0.1600
17		N		-1.6688		0.0394		0.0641		N.ar		1		UNL1		-0.5425
18		C		-0.3389		0.1308		0.0706		C.ar		1		UNL1		0.6738
19		O		0.2735		-1.0692		-0.0538		O.3		1		UNL1		-0.5365
20		C		1.6629		-1.1576		-0.0024		C.ar		1		UNL1		0.3629
21		C		2.3406		-0.8873		1.2079		C.ar		1		UNL1		-0.1398
22		C		3.6992		-1.0789		1.2667		C.ar		1		UNL1		-0.1606
23		CL		4.5144		-0.7269		2.7888		Cl		1		UNL1		-0.0110
24		C		4.4537		-1.5516		0.1515		C.ar		1		UNL1		0.1500
25		C		5.8568		-1.7642		0.1738		C.ar		1		UNL1		-0.1963
26		C		6.5161		-2.2279		-0.9428		C.ar		1		UNL1		-0.1336
27		C		5.8055		-2.5021		-2.1348		C.ar		1		UNL1		-0.1313
28		C		4.4446		-2.3066		-2.1878		C.ar		1		UNL1		-0.1912
29		C		3.7293		-1.8282		-1.0575		C.ar		1		UNL1		0.1298
30		C		2.3257		-1.6207		-1.1084		C.ar		1		UNL1		-0.2313
31		N		0.3999		1.2249		0.1675		N.ar		1		UNL1		-0.5391
32		H		0.7673		5.0570		-1.9179		H		1		UNL1		0.1452
33		H		2.3006		5.1532		-2.7889		H		1		UNL1		0.1540
34		H		2.1127		5.9969		-1.2452		H		1		UNL1		0.1403
35		H		3.4529		3.8681		-0.9705		H		1		UNL1		0.1410
36		H		2.1165		2.9306		-1.6269		H		1		UNL1		0.1591
37		H		2.0408		4.5537		0.9723		H		1		UNL1		0.1454
38		H		2.2259		2.7995		0.8442		H		1		UNL1		0.1867
39		H		-0.2506		4.3499		0.4420		H		1		UNL1		0.3387
40		H		-3.9730		2.2534		0.2677		H		1		UNL1		0.3462
41		H		-6.1793		1.8358		0.2189		H		1		UNL1		0.1365
42		H		-8.0551		0.2450		0.0619		H		1		UNL1		0.1580
43		H		-5.2557		-3.0094		-0.2326		H		1		UNL1		0.1603
44		H		-3.3705		-1.4134		-0.0752		H		1		UNL1		0.2007
45		H		1.7896		-0.5348		2.0707		H		1		UNL1		0.1651
46		H		6.4054		-1.5571		1.0857		H		1		UNL1		0.1582
47		H		7.5904		-2.3855		-0.9081		H		1		UNL1		0.1376
48		H		6.3377		-2.8683		-3.0083		H		1		UNL1		0.1375
49		H		3.8918		-2.5159		-3.1001		H		1		UNL1		0.1380
50		H		1.7739		-1.8336		-2.0185		H		1		UNL1		0.1489
@<TRIPOS>BOND
1		49		28		1
2		48		27		1
3		33		1		1
4		28		27		ar
5		28		29		ar
6		27		26		ar
7		50		30		1
8		32		1		1
9		1		34		1
10		1		2		1
11		36		2		1
12		30		29		ar
13		30		20		ar
14		29		24		ar
15		2		35		1
16		2		3		1
17		26		47		1
18		26		25		ar
19		14		13		3
20		43		15		1
21		13		12		1
22		15		12		ar
23		15		16		ar
24		12		11		ar
25		44		16		1
26		19		20		1
27		19		18		1
28		16		9		ar
29		20		21		ar
30		11		42		1
31		11		10		ar
32		17		18		ar
33		17		7		ar
34		18		31		ar
35		9		10		ar
36		9		8		1
37		10		41		1
38		24		25		ar
39		24		22		ar
40		31		5		ar
41		7		8		1
42		7		6		ar
43		25		46		1
44		8		40		1
45		5		6		ar
46		5		4		1
47		3		4		1
48		3		38		1
49		3		37		1
50		4		39		1
51		21		22		ar
52		21		45		1
53		22		23		1

