@<TRIPOS>MOLECULE
CFE-2008-ZL-32
 41 44 0 0 0
SMALL
MULLIKEN_CHARGES
****
Gaussian 16 #p B3LYP/6-31G* opt
@<TRIPOS>ATOM
1		N		-10.8936		0.7888		0.4340		N.1		1		UNL1		-0.4827
2		C		-9.7721		0.4957		0.3278		C.1		1		UNL1		0.2284
3		C		-8.3932		0.1354		0.1975		C.ar		1		UNL1		0.1325
4		C		-7.3864		1.1067		0.3220		C.ar		1		UNL1		-0.1529
5		C		-6.0439		0.7710		0.1981		C.ar		1		UNL1		-0.1542
6		C		-5.6776		-0.5628		-0.0561		C.ar		1		UNL1		0.3814
7		N		-4.3601		-1.0055		-0.1989		N.pl3		1		UNL1		-0.7766
8		C		-3.1498		-0.3610		-0.1316		C.ar		1		UNL1		0.7176
9		N		-3.0890		0.9502		0.1193		N.ar		1		UNL1		-0.5494
10		C		-1.8334		1.4364		0.1542		C.ar		1		UNL1		0.6707
11		N		-1.6887		2.7611		0.3804		N.3		1		UNL1		-0.7703
12		N		-0.7046		0.7249		-0.0303		N.ar		1		UNL1		-0.5272
13		C		-0.9263		-0.5642		-0.2702		C.ar		1		UNL1		0.6729
14		O		0.1278		-1.3871		-0.4588		O.3		1		UNL1		-0.5351
15		C		1.4247		-0.8739		-0.4948		C.ar		1		UNL1		0.3569
16		C		1.8332		-0.0492		-1.5692		C.ar		1		UNL1		-0.1329
17		C		3.1428		0.3599		-1.6456		C.ar		1		UNL1		-0.2064
18		C		4.0939		-0.0370		-0.6656		C.ar		1		UNL1		0.1456
19		C		5.4514		0.3749		-0.7270		C.ar		1		UNL1		-0.2210
20		C		6.3354		-0.0369		0.2409		C.ar		1		UNL1		0.0788
21		BR		8.1638		0.5201		0.1586		Br		1		UNL1		-0.1292
22		C		5.9304		-0.8701		1.3090		C.ar		1		UNL1		-0.1527
23		C		4.6192		-1.2807		1.3843		C.ar		1		UNL1		-0.1905
24		C		3.6662		-0.8808		0.4099		C.ar		1		UNL1		0.1358
25		C		2.3077		-1.2890		0.4697		C.ar		1		UNL1		-0.2370
26		N		-2.1005		-1.1821		-0.3392		N.ar		1		UNL1		-0.5479
27		C		-6.6876		-1.5373		-0.1816		C.ar		1		UNL1		-0.2043
28		C		-8.0246		-1.1971		-0.0573		C.ar		1		UNL1		-0.1401
29		H		-7.6632		2.1378		0.5179		H		1		UNL1		0.1575
30		H		-5.2740		1.5223		0.2945		H		1		UNL1		0.1792
31		H		-4.2396		-1.9927		-0.3904		H		1		UNL1		0.3528
32		H		-0.7616		3.1264		0.5349		H		1		UNL1		0.3559
33		H		-2.4935		3.3044		0.6507		H		1		UNL1		0.3515
34		H		1.1071		0.2476		-2.3179		H		1		UNL1		0.1478
35		H		3.4679		0.9933		-2.4667		H		1		UNL1		0.1422
36		H		5.7820		1.0134		-1.5399		H		1		UNL1		0.1541
37		H		6.6551		-1.1766		2.0552		H		1		UNL1		0.1560
38		H		4.2997		-1.9219		2.2018		H		1		UNL1		0.1438
39		H		1.9636		-1.9339		1.2725		H		1		UNL1		0.1472
40		H		-6.4140		-2.5712		-0.3784		H		1		UNL1		0.1415
41		H		-8.7909		-1.9590		-0.1563		H		1		UNL1		0.1604
@<TRIPOS>BOND
1		35		17		1
2		34		16		1
3		17		16		ar
4		17		18		ar
5		16		15		ar
6		36		19		1
7		19		18		ar
8		19		20		ar
9		18		24		ar
10		15		14		1
11		15		25		ar
12		14		13		1
13		31		7		1
14		40		27		1
15		26		13		ar
16		26		8		ar
17		13		12		ar
18		7		8		1
19		7		6		1
20		27		28		ar
21		27		6		ar
22		41		28		1
23		8		9		ar
24		28		3		ar
25		6		5		ar
26		12		10		ar
27		9		10		ar
28		10		11		1
29		21		20		1
30		3		4		ar
31		3		2		1
32		5		30		1
33		5		4		ar
34		20		22		ar
35		4		29		1
36		2		1		3
37		11		32		1
38		11		33		1
39		24		25		ar
40		24		23		ar
41		25		39		1
42		22		23		ar
43		22		37		1
44		23		38		1

