@<TRIPOS>MOLECULE
CFE-2008-ZL-11
 47 50 0 0 0
SMALL
MULLIKEN_CHARGES
****
Gaussian 16 #p B3LYP/6-31G* opt
@<TRIPOS>ATOM
1		C		-1.1698		3.8560		0.6634		C.3		1		UNL1		-0.4566
2		C		-0.5667		3.9403		-0.7429		C.3		1		UNL1		-0.1246
3		N		0.8802		3.7418		-0.7745		N.3		1		UNL1		-0.6272
4		C		1.4852		2.5376		-0.6821		C.ar		1		UNL1		0.7005
5		N		2.8239		2.5302		-0.5503		N.ar		1		UNL1		-0.5787
6		C		3.3586		1.3036		-0.4513		C.ar		1		UNL1		0.7232
7		N		4.7267		1.2999		-0.3354		N.pl3		1		UNL1		-0.7771
8		C		5.6593		0.2661		-0.2044		C.ar		1		UNL1		0.3798
9		C		7.0132		0.6478		-0.1237		C.ar		1		UNL1		-0.2055
10		C		8.0141		-0.3008		0.0079		C.ar		1		UNL1		-0.1405
11		C		7.6879		-1.6670		0.0631		C.ar		1		UNL1		0.1322
12		C		8.7164		-2.6529		0.1983		C.1		1		UNL1		0.2282
13		N		9.5548		-3.4531		0.3079		N.1		1		UNL1		-0.4843
14		C		6.3379		-2.0469		-0.0168		C.ar		1		UNL1		-0.1546
15		C		5.3293		-1.1004		-0.1488		C.ar		1		UNL1		-0.1598
16		N		2.6850		0.1427		-0.4484		N.ar		1		UNL1		-0.5434
17		C		1.3724		0.3065		-0.5914		C.ar		1		UNL1		0.6847
18		O		0.6853		-0.8645		-0.5859		O.3		1		UNL1		-0.5356
19		C		-0.6975		-0.8490		-0.6869		C.ar		1		UNL1		0.3296
20		C		-1.2526		-1.2932		-1.9071		C.ar		1		UNL1		-0.1541
21		C		-2.6137		-1.3981		-2.0504		C.ar		1		UNL1		-0.1995
22		C		-3.4829		-1.0600		-0.9803		C.ar		1		UNL1		0.1539
23		C		-4.8928		-1.1589		-1.1191		C.ar		1		UNL1		-0.2255
24		C		-5.7134		-0.8261		-0.0701		C.ar		1		UNL1		0.0836
25		BR		-7.6096		-0.9585		-0.2620		Br		1		UNL1		-0.1214
26		C		-5.1841		-0.3818		1.1621		C.ar		1		UNL1		-0.1507
27		C		-3.8217		-0.2789		1.3206		C.ar		1		UNL1		-0.1890
28		C		-2.9299		-0.6120		0.2663		C.ar		1		UNL1		0.0945
29		C		-1.5122		-0.5254		0.3777		C.ar		1		UNL1		0.0044
30		BR		-0.7118		0.0457		2.0066		Br		1		UNL1		-0.0929
31		N		0.7018		1.4356		-0.7353		N.ar		1		UNL1		-0.5323
32		H		-2.2464		4.0594		0.6223		H		1		UNL1		0.1481
33		H		-0.7112		4.5904		1.3357		H		1		UNL1		0.1420
34		H		-1.0266		2.8573		1.0867		H		1		UNL1		0.1879
35		H		-1.0199		3.1868		-1.3913		H		1		UNL1		0.1840
36		H		-0.7617		4.9211		-1.1893		H		1		UNL1		0.1479
37		H		1.4919		4.5342		-0.6352		H		1		UNL1		0.3367
38		H		5.1041		2.2391		-0.3508		H		1		UNL1		0.3464
39		H		7.2771		1.7020		-0.1658		H		1		UNL1		0.1365
40		H		9.0525		0.0088		0.0686		H		1		UNL1		0.1580
41		H		6.0775		-3.0997		0.0260		H		1		UNL1		0.1603
42		H		4.2932		-1.4009		-0.2089		H		1		UNL1		0.2008
43		H		-0.5729		-1.5504		-2.7127		H		1		UNL1		0.1578
44		H		-3.0413		-1.7408		-2.9882		H		1		UNL1		0.1486
45		H		-5.3108		-1.4989		-2.0610		H		1		UNL1		0.1583
46		H		-5.8553		-0.1250		1.9741		H		1		UNL1		0.1599
47		H		-3.4123		0.0623		2.2644		H		1		UNL1		0.1653
@<TRIPOS>BOND
1		44		21		1
2		43		20		1
3		45		23		1
4		21		20		ar
5		21		22		ar
6		20		19		ar
7		35		2		1
8		36		2		1
9		23		22		ar
10		23		24		ar
11		22		28		ar
12		3		2		1
13		3		4		1
14		3		37		1
15		2		1		1
16		31		4		ar
17		31		17		ar
18		19		18		1
19		19		29		ar
20		4		5		ar
21		17		18		1
22		17		16		ar
23		5		6		ar
24		6		16		ar
25		6		7		1
26		38		7		1
27		7		8		1
28		25		24		1
29		42		15		1
30		8		15		ar
31		8		9		ar
32		39		9		1
33		15		14		ar
34		9		10		ar
35		24		26		ar
36		14		41		1
37		14		11		ar
38		10		11		ar
39		10		40		1
40		11		12		1
41		12		13		3
42		28		29		ar
43		28		27		ar
44		29		30		1
45		32		1		1
46		1		34		1
47		1		33		1
48		26		27		ar
49		26		46		1
50		27		47		1

