@<TRIPOS>MOLECULE
CFE-2008-ZL-23
 48 51 0 0 0
SMALL
MULLIKEN_CHARGES
****
Gaussian 16 #p B3LYP/6-31G* opt
@<TRIPOS>ATOM
1		C		7.0311		0.1544		1.7552		C.2		1		UNL1		-0.3316
2		C		7.1282		-0.4547		0.5747		C.2		1		UNL1		-0.0697
3		C		6.1506		-0.3351		-0.5709		C.3		1		UNL1		-0.1618
4		N		5.1195		0.6650		-0.3802		N.3		1		UNL1		-0.6381
5		C		3.8022		0.4202		-0.1883		C.ar		1		UNL1		0.7029
6		N		3.3628		-0.8489		-0.2319		N.ar		1		UNL1		-0.5715
7		C		2.0414		-0.9742		-0.0404		C.ar		1		UNL1		0.7040
8		N		1.5757		-2.2640		-0.0977		N.pl3		1		UNL1		-0.7691
9		C		0.2657		-2.7609		-0.0437		C.ar		1		UNL1		0.3673
10		C		0.0971		-4.0937		0.3718		C.ar		1		UNL1		-0.1944
11		C		-1.1638		-4.6698		0.4146		C.ar		1		UNL1		-0.1425
12		C		-2.2931		-3.9186		0.0475		C.ar		1		UNL1		0.1318
13		C		-3.5993		-4.5021		0.0999		C.1		1		UNL1		0.2300
14		N		-4.6608		-4.9779		0.1423		N.1		1		UNL1		-0.4850
15		C		-2.1214		-2.5905		-0.3789		C.ar		1		UNL1		-0.1658
16		C		-0.8591		-2.0144		-0.4358		C.ar		1		UNL1		-0.1387
17		N		1.1801		0.0217		0.2094		N.ar		1		UNL1		-0.5350
18		C		1.7562		1.2232		0.2136		C.ar		1		UNL1		0.6848
19		O		0.9788		2.3095		0.4519		O.3		1		UNL1		-0.5357
20		C		-0.3661		2.1478		0.7534		C.ar		1		UNL1		0.3342
21		C		-0.7447		2.3332		2.1014		C.ar		1		UNL1		-0.1522
22		C		-2.0686		2.2749		2.4593		C.ar		1		UNL1		-0.2001
23		C		-3.0753		2.0246		1.4904		C.ar		1		UNL1		0.1539
24		C		-4.4478		1.9464		1.8474		C.ar		1		UNL1		-0.1955
25		C		-5.4144		1.6947		0.9017		C.ar		1		UNL1		-0.1291
26		C		-5.0456		1.5121		-0.4520		C.ar		1		UNL1		-0.1332
27		C		-3.7255		1.5855		-0.8371		C.ar		1		UNL1		-0.1935
28		C		-2.7030		1.8423		0.1154		C.ar		1		UNL1		0.0911
29		C		-1.3190		1.9243		-0.2165		C.ar		1		UNL1		-0.0101
30		BR		-0.7497		1.6886		-2.0181		Br		1		UNL1		-0.1072
31		N		3.0311		1.5133		0.0216		N.ar		1		UNL1		-0.5386
32		H		6.1981		0.8097		1.9961		H		1		UNL1		0.1455
33		H		7.7811		0.0117		2.5276		H		1		UNL1		0.1460
34		H		7.9769		-1.1083		0.3709		H		1		UNL1		0.1330
35		H		6.7032		-0.1107		-1.4954		H		1		UNL1		0.1594
36		H		5.6434		-1.2906		-0.7365		H		1		UNL1		0.2003
37		H		5.3816		1.6394		-0.3136		H		1		UNL1		0.3433
38		H		2.3223		-2.9448		-0.1527		H		1		UNL1		0.3445
39		H		0.9649		-4.6748		0.6739		H		1		UNL1		0.1383
40		H		-1.2825		-5.6981		0.7405		H		1		UNL1		0.1576
41		H		-2.9872		-2.0078		-0.6771		H		1		UNL1		0.1621
42		H		-0.7433		-1.0019		-0.7955		H		1		UNL1		0.1979
43		H		0.0365		2.5238		2.8298		H		1		UNL1		0.1524
44		H		-2.3611		2.4156		3.4962		H		1		UNL1		0.1435
45		H		-4.7192		2.0862		2.8909		H		1		UNL1		0.1378
46		H		-6.4597		1.6334		1.1903		H		1		UNL1		0.1393
47		H		-5.8117		1.3123		-1.1958		H		1		UNL1		0.1405
48		H		-3.4475		1.4465		-1.8756		H		1		UNL1		0.1570
@<TRIPOS>BOND
1		30		29		1
2		48		27		1
3		35		3		1
4		47		26		1
5		27		26		ar
6		27		28		ar
7		42		16		1
8		36		3		1
9		41		15		1
10		3		4		1
11		3		2		1
12		26		25		ar
13		16		15		ar
14		16		9		ar
15		4		37		1
16		4		5		1
17		15		12		ar
18		6		5		ar
19		6		7		ar
20		29		28		ar
21		29		20		ar
22		5		31		ar
23		38		8		1
24		8		9		1
25		8		7		1
26		9		10		ar
27		7		17		ar
28		31		18		ar
29		12		13		1
30		12		11		ar
31		13		14		3
32		28		23		ar
33		17		18		ar
34		18		19		1
35		34		2		1
36		10		11		ar
37		10		39		1
38		11		40		1
39		19		20		1
40		2		1		2
41		20		21		ar
42		25		46		1
43		25		24		ar
44		23		24		ar
45		23		22		ar
46		1		32		1
47		1		33		1
48		24		45		1
49		21		22		ar
50		21		43		1
51		22		44		1

