@<TRIPOS>MOLECULE
FXQ-2010-BMC-2370-12F
 37 39 0 0 0
SMALL
MULLIKEN_CHARGES
****
Gaussian 16 #p B3LYP/6-31G* opt
@<TRIPOS>ATOM
1		N		8.3089		1.0480		0.1849		N.1		1		UNL1		-0.4849
2		C		7.1631		0.8414		0.1847		C.1		1		UNL1		0.2274
3		C		5.7548		0.5888		0.1853		C.ar		1		UNL1		0.1313
4		C		4.8478		1.6050		0.5351		C.ar		1		UNL1		-0.1404
5		C		3.4862		1.3529		0.5339		C.ar		1		UNL1		-0.2055
6		C		2.9840		0.0824		0.1848		C.ar		1		UNL1		0.3825
7		N		1.5977		-0.0717		0.2153		N.pl3		1		UNL1		-0.7683
8		C		0.7740		-1.1425		-0.0616		C.ar		1		UNL1		0.6965
9		N		1.2904		-2.3167		-0.4435		N.ar		1		UNL1		-0.4766
10		C		0.3932		-3.2823		-0.6892		C.ar		1		UNL1		0.0671
11		C		-0.9758		-3.1079		-0.5656		C.ar		1		UNL1		-0.1830
12		C		-1.4065		-1.8343		-0.1509		C.ar		1		UNL1		0.3069
13		C		-2.8529		-1.5148		0.0431		C.2		1		UNL1		0.1860
14		N		-3.6323		-2.5418		-0.0262		N.2		1		UNL1		-0.2314
15		O		-4.9760		-2.2350		0.1355		O.2		1		UNL1		-0.4799
16		C		-3.2900		-0.1145		0.3073		C.ar		1		UNL1		0.1231
17		C		-4.0939		0.1872		1.4153		C.ar		1		UNL1		-0.1275
18		C		-4.4947		1.5002		1.6545		C.ar		1		UNL1		-0.1391
19		C		-4.1146		2.5288		0.7920		C.ar		1		UNL1		-0.1219
20		C		-3.3200		2.2180		-0.3105		C.ar		1		UNL1		-0.0802
21		CL		-2.8266		3.5023		-1.4089		Cl		1		UNL1		-0.0232
22		C		-2.8982		0.9155		-0.5593		C.ar		1		UNL1		-0.1327
23		N		-0.5351		-0.8556		0.0986		N.ar		1		UNL1		-0.5706
24		C		3.8897		-0.9360		-0.1661		C.ar		1		UNL1		-0.1600
25		C		5.2546		-0.6766		-0.1629		C.ar		1		UNL1		-0.1532
26		H		5.2183		2.5883		0.8060		H		1		UNL1		0.1583
27		H		2.7943		2.1468		0.8056		H		1		UNL1		0.1393
28		H		1.0652		0.7445		0.4895		H		1		UNL1		0.3500
29		H		0.8049		-4.2396		-1.0037		H		1		UNL1		0.1564
30		H		-1.6807		-3.9011		-0.7730		H		1		UNL1		0.1665
31		H		-5.3998		-3.1030		0.0356		H		1		UNL1		0.4274
32		H		-4.4037		-0.6062		2.0858		H		1		UNL1		0.1489
33		H		-5.1126		1.7279		2.5183		H		1		UNL1		0.1449
34		H		-4.4263		3.5527		0.9684		H		1		UNL1		0.1585
35		H		-2.2708		0.7057		-1.4171		H		1		UNL1		0.1605
36		H		3.5128		-1.9120		-0.4354		H		1		UNL1		0.1890
37		H		5.9478		-1.4666		-0.4344		H		1		UNL1		0.1580
@<TRIPOS>BOND
1		35		22		1
2		21		20		1
3		29		10		1
4		30		11		1
5		10		11		ar
6		10		9		ar
7		11		12		ar
8		22		20		ar
9		22		16		ar
10		9		8		ar
11		36		24		1
12		37		25		1
13		20		19		ar
14		24		25		ar
15		24		6		ar
16		25		3		ar
17		12		13		1
18		12		23		ar
19		8		23		ar
20		8		7		1
21		14		13		2
22		14		15		1
23		31		15		1
24		13		16		1
25		2		1		3
26		2		3		1
27		6		7		1
28		6		5		ar
29		3		4		ar
30		7		28		1
31		16		17		ar
32		5		4		ar
33		5		27		1
34		4		26		1
35		19		34		1
36		19		18		ar
37		17		18		ar
38		17		32		1
39		18		33		1

