@<TRIPOS>MOLECULE
FXQ-2010-BMC-2370-12C
 37 39 0 0 0
SMALL
MULLIKEN_CHARGES
****
Gaussian 16 #p B3LYP/6-31G* opt
@<TRIPOS>ATOM
1		N		7.3084		-2.5945		0.6013		N.1		1		UNL1		-0.4862
2		C		6.4421		-1.8269		0.4751		C.1		1		UNL1		0.2264
3		C		5.3777		-0.8835		0.3197		C.ar		1		UNL1		0.1322
4		C		4.0547		-1.3207		0.1417		C.ar		1		UNL1		-0.1567
5		C		3.0092		-0.4185		-0.0112		C.ar		1		UNL1		-0.1671
6		C		3.2744		0.9642		0.0126		C.ar		1		UNL1		0.3789
7		N		2.3034		1.9554		-0.1371		N.pl3		1		UNL1		-0.7662
8		C		0.9350		1.8933		-0.2929		C.ar		1		UNL1		0.6919
9		N		0.3573		3.1096		-0.4337		N.ar		1		UNL1		-0.4815
10		C		-0.9618		3.0941		-0.5926		C.ar		1		UNL1		0.0707
11		C		-1.7193		1.9202		-0.6124		C.ar		1		UNL1		-0.2109
12		C		-1.0171		0.7219		-0.4485		C.ar		1		UNL1		0.3142
13		C		-1.7160		-0.5971		-0.4758		C.2		1		UNL1		0.1833
14		N		-0.9616		-1.6103		-0.7397		N.2		1		UNL1		-0.2017
15		O		-1.6518		-2.8168		-0.7434		O.2		1		UNL1		-0.4824
16		C		-3.1855		-0.6629		-0.2229		C.ar		1		UNL1		0.0863
17		C		-4.0562		-1.2484		-1.1545		C.ar		1		UNL1		-0.1342
18		C		-5.4269		-1.2929		-0.9028		C.ar		1		UNL1		-0.1394
19		C		-5.9523		-0.7673		0.2787		C.ar		1		UNL1		-0.1891
20		C		-5.0749		-0.1959		1.1924		C.ar		1		UNL1		0.3817
21		F		-5.5660		0.3155		2.3402		F		1		UNL1		-0.2949
22		C		-3.7068		-0.1265		0.9635		C.ar		1		UNL1		-0.2321
23		N		0.3162		0.7123		-0.2832		N.ar		1		UNL1		-0.5357
24		C		4.6024		1.4036		0.1906		C.ar		1		UNL1		-0.2045
25		C		5.6390		0.4980		0.3416		C.ar		1		UNL1		-0.1416
26		H		3.8454		-2.3857		0.1224		H		1		UNL1		0.1544
27		H		1.9949		-0.7662		-0.1487		H		1		UNL1		0.2087
28		H		2.6365		2.9112		-0.1396		H		1		UNL1		0.3473
29		H		-1.4416		4.0643		-0.7119		H		1		UNL1		0.1577
30		H		-2.7916		1.9446		-0.7551		H		1		UNL1		0.1613
31		H		-0.9469		-3.4538		-0.9439		H		1		UNL1		0.4275
32		H		-3.6561		-1.6710		-2.0690		H		1		UNL1		0.1498
33		H		-6.0945		-1.7437		-1.6314		H		1		UNL1		0.1467
34		H		-7.0145		-0.7944		0.4983		H		1		UNL1		0.1537
35		H		-3.0653		0.3323		1.7086		H		1		UNL1		0.1584
36		H		4.8159		2.4699		0.2104		H		1		UNL1		0.1364
37		H		6.6555		0.8525		0.4779		H		1		UNL1		0.1570
@<TRIPOS>BOND
1		32		17		1
2		33		18		1
3		17		18		ar
4		17		16		ar
5		31		15		1
6		18		19		ar
7		30		11		1
8		15		14		1
9		14		13		2
10		29		10		1
11		11		10		ar
12		11		12		ar
13		10		9		ar
14		13		12		1
15		13		16		1
16		12		23		ar
17		9		8		ar
18		8		23		ar
19		8		7		1
20		16		22		ar
21		27		5		1
22		28		7		1
23		7		6		1
24		5		6		ar
25		5		4		ar
26		6		24		ar
27		26		4		1
28		4		3		ar
29		24		36		1
30		24		25		ar
31		19		34		1
32		19		20		ar
33		3		25		ar
34		3		2		1
35		25		37		1
36		2		1		3
37		22		20		ar
38		22		35		1
39		20		21		1

