@<TRIPOS>MOLECULE
FXQ-2009-CMC-219-10D
 40 43 0 0 0
SMALL
MULLIKEN_CHARGES
****
Gaussian 16 #p B3LYP/6-31G* opt
@<TRIPOS>ATOM
1		N		8.0821		-1.6334		-0.0936		N.1		1		UNL1		-0.4856
2		C		6.9641		-1.3090		-0.1121		C.1		1		UNL1		0.2269
3		C		5.5896		-0.9126		-0.1353		C.ar		1		UNL1		0.1310
4		C		4.5860		-1.8378		-0.4738		C.ar		1		UNL1		-0.1407
5		C		3.2577		-1.4472		-0.4940		C.ar		1		UNL1		-0.2054
6		C		2.8855		-0.1242		-0.1782		C.ar		1		UNL1		0.3825
7		N		1.5233		0.1709		-0.2277		N.pl3		1		UNL1		-0.7597
8		C		0.8125		1.3261		0.0201		C.ar		1		UNL1		0.6869
9		N		1.4430		2.4473		0.3856		N.ar		1		UNL1		-0.4826
10		C		0.6460		3.5051		0.6040		C.ar		1		UNL1		0.0739
11		C		-0.7317		3.4699		0.4704		C.ar		1		UNL1		-0.1914
12		C		-1.2753		2.2321		0.0764		C.ar		1		UNL1		0.1222
13		S		-3.0470		2.1243		-0.1144		S.3		1		UNL1		0.1557
14		C		-3.3145		0.4319		-0.6512		C.ar		1		UNL1		-0.1595
15		C		-3.5950		0.2268		-1.9877		C.ar		1		UNL1		-0.1485
16		C		-3.8929		-1.0668		-2.4745		C.ar		1		UNL1		-0.1279
17		C		-3.9029		-2.1393		-1.6146		C.ar		1		UNL1		-0.1879
18		C		-3.6236		-1.9700		-0.2322		C.ar		1		UNL1		0.1409
19		C		-3.6365		-3.0737		0.6629		C.ar		1		UNL1		-0.1930
20		C		-3.3723		-2.9025		2.0018		C.ar		1		UNL1		-0.1321
21		C		-3.0845		-1.6114		2.5042		C.ar		1		UNL1		-0.1350
22		C		-3.0616		-0.5202		1.6644		C.ar		1		UNL1		-0.1922
23		C		-3.3264		-0.6599		0.2762		C.ar		1		UNL1		0.1382
24		N		-0.5192		1.1681		-0.1486		N.ar		1		UNL1		-0.5073
25		C		3.8881		0.8035		0.1607		C.ar		1		UNL1		-0.1596
26		C		5.2190		0.4053		0.1792		C.ar		1		UNL1		-0.1535
27		H		4.8560		-2.8598		-0.7193		H		1		UNL1		0.1571
28		H		2.4901		-2.1714		-0.7569		H		1		UNL1		0.1375
29		H		0.9108		-0.5923		-0.4872		H		1		UNL1		0.3506
30		H		1.1498		4.4230		0.9016		H		1		UNL1		0.1561
31		H		-1.3498		4.3408		0.6548		H		1		UNL1		0.1576
32		H		-3.5844		1.0703		-2.6706		H		1		UNL1		0.1538
33		H		-4.1098		-1.2037		-3.5299		H		1		UNL1		0.1402
34		H		-4.1299		-3.1376		-1.9811		H		1		UNL1		0.1385
35		H		-3.8626		-4.0606		0.2662		H		1		UNL1		0.1346
36		H		-3.3864		-3.7543		2.6761		H		1		UNL1		0.1362
37		H		-2.8802		-1.4805		3.5633		H		1		UNL1		0.1370
38		H		-2.8426		0.4655		2.0598		H		1		UNL1		0.1572
39		H		3.6101		1.8187		0.4041		H		1		UNL1		0.1896
40		H		5.9872		1.1259		0.4415		H		1		UNL1		0.1576
@<TRIPOS>BOND
1		33		16		1
2		32		15		1
3		16		15		ar
4		16		17		ar
5		15		14		ar
6		34		17		1
7		17		18		ar
8		28		5		1
9		27		4		1
10		14		13		1
11		14		23		ar
12		5		4		ar
13		5		6		ar
14		29		7		1
15		4		3		ar
16		18		23		ar
17		18		19		ar
18		7		6		1
19		7		8		1
20		6		25		ar
21		24		8		ar
22		24		12		ar
23		3		2		1
24		3		26		ar
25		13		12		1
26		2		1		3
27		8		9		ar
28		12		11		ar
29		25		26		ar
30		25		39		1
31		26		40		1
32		35		19		1
33		23		22		ar
34		9		10		ar
35		11		10		ar
36		11		31		1
37		10		30		1
38		19		20		ar
39		22		38		1
40		22		21		ar
41		20		21		ar
42		20		36		1
43		21		37		1

