@<TRIPOS>MOLECULE
FXQ-2010-BMC-2370-12A
 37 39 0 0 0
SMALL
MULLIKEN_CHARGES
****
Gaussian 16 #p B3LYP/6-31G* opt
@<TRIPOS>ATOM
1		N		8.5986		-0.4997		-0.1118		N.1		1		UNL1		-0.4862
2		C		7.4503		-0.3073		-0.1023		C.1		1		UNL1		0.2267
3		C		6.0394		-0.0702		-0.0913		C.ar		1		UNL1		0.1307
4		C		5.5300		1.2184		-0.3319		C.ar		1		UNL1		-0.1407
5		C		4.1632		1.4399		-0.3201		C.ar		1		UNL1		-0.2054
6		C		3.2591		0.3869		-0.0687		C.ar		1		UNL1		0.3832
7		N		1.9032		0.7117		-0.0798		N.pl3		1		UNL1		-0.7680
8		C		0.7615		-0.0359		0.1226		C.ar		1		UNL1		0.6936
9		N		0.8530		-1.3487		0.3933		N.ar		1		UNL1		-0.4751
10		C		-0.3150		-1.9719		0.5746		C.ar		1		UNL1		0.0710
11		C		-1.5465		-1.3332		0.4929		C.ar		1		UNL1		-0.2132
12		C		-1.5217		0.0419		0.2010		C.ar		1		UNL1		0.3199
13		C		-2.7837		0.8273		0.1095		C.2		1		UNL1		0.1705
14		N		-2.6652		2.1124		0.2010		N.2		1		UNL1		-0.1332
15		O		-3.8009		2.8683		0.0991		O.2		1		UNL1		-0.4794
16		C		-4.0897		0.1160		-0.0656		C.ar		1		UNL1		-0.0053
17		C		-5.0722		0.1703		0.9386		C.ar		1		UNL1		-0.1732
18		C		-6.2946		-0.4827		0.7685		C.ar		1		UNL1		-0.1277
19		C		-6.5507		-1.1934		-0.4047		C.ar		1		UNL1		-0.1211
20		C		-5.5817		-1.2510		-1.4097		C.ar		1		UNL1		-0.1322
21		C		-4.3599		-0.6007		-1.2430		C.ar		1		UNL1		-0.1429
22		N		-0.3667		0.6858		0.0095		N.ar		1		UNL1		-0.5377
23		C		3.7671		-0.9035		0.1728		C.ar		1		UNL1		-0.1605
24		C		5.1394		-1.1190		0.1595		C.ar		1		UNL1		-0.1534
25		H		6.2119		2.0397		-0.5270		H		1		UNL1		0.1575
26		H		3.7810		2.4406		-0.5072		H		1		UNL1		0.1395
27		H		1.6774		1.6811		-0.2666		H		1		UNL1		0.3525
28		H		-0.2555		-3.0358		0.7983		H		1		UNL1		0.1547
29		H		-2.4720		-1.8705		0.6550		H		1		UNL1		0.1572
30		H		-4.5683		2.2813		-0.0849		H		1		UNL1		0.3970
31		H		-4.8680		0.7129		1.8581		H		1		UNL1		0.1616
32		H		-7.0427		-0.4380		1.5549		H		1		UNL1		0.1482
33		H		-7.5018		-1.7017		-0.5364		H		1		UNL1		0.1463
34		H		-5.7784		-1.8018		-2.3253		H		1		UNL1		0.1474
35		H		-3.6080		-0.6447		-2.0261		H		1		UNL1		0.1534
36		H		3.0817		-1.7156		0.3670		H		1		UNL1		0.1874
37		H		5.5239		-2.1168		0.3466		H		1		UNL1		0.1566
@<TRIPOS>BOND
1		34		20		1
2		35		21		1
3		20		21		ar
4		20		19		ar
5		21		16		ar
6		33		19		1
7		25		4		1
8		26		5		1
9		19		18		ar
10		4		5		ar
11		4		3		ar
12		5		6		ar
13		27		7		1
14		1		2		3
15		2		3		1
16		3		24		ar
17		30		15		1
18		7		6		1
19		7		8		1
20		6		23		ar
21		16		13		1
22		16		17		ar
23		22		8		ar
24		22		12		ar
25		15		14		1
26		13		14		2
27		13		12		1
28		8		9		ar
29		24		23		ar
30		24		37		1
31		23		36		1
32		12		11		ar
33		9		10		ar
34		11		10		ar
35		11		29		1
36		10		28		1
37		18		17		ar
38		18		32		1
39		17		31		1

