@<TRIPOS>MOLECULE
FXQ-2010-BMC-2370-12M
 40 42 0 0 0
SMALL
MULLIKEN_CHARGES
****
Gaussian 16 #p B3LYP/6-31G* opt
@<TRIPOS>ATOM
1		C		7.5862		-1.5577		0.4487		C.3		1		UNL1		-0.5319
2		C		6.2326		-0.9087		0.2852		C.ar		1		UNL1		0.1817
3		C		5.9282		-0.1417		-0.8454		C.ar		1		UNL1		-0.1796
4		C		4.6853		0.4777		-0.9848		C.ar		1		UNL1		-0.1736
5		C		3.7028		0.3414		0.0098		C.ar		1		UNL1		-0.0048
6		C		2.3721		1.0112		-0.1303		C.2		1		UNL1		0.1702
7		N		2.2060		2.2938		-0.1754		N.2		1		UNL1		-0.1343
8		O		3.3152		3.0857		-0.0528		O.2		1		UNL1		-0.4805
9		C		1.1372		0.1861		-0.2416		C.ar		1		UNL1		0.3188
10		C		1.2065		-1.1736		-0.5929		C.ar		1		UNL1		-0.2127
11		C		-0.0025		-1.8519		-0.6885		C.ar		1		UNL1		0.0707
12		N		-1.1896		-1.2792		-0.4677		N.ar		1		UNL1		-0.4755
13		C		-1.1408		0.0232		-0.1419		C.ar		1		UNL1		0.6932
14		N		-2.3056		0.7206		0.1048		N.pl3		1		UNL1		-0.7681
15		C		-3.6493		0.3489		0.0934		C.ar		1		UNL1		0.3833
16		C		-4.5867		1.3577		0.3984		C.ar		1		UNL1		-0.2054
17		C		-5.9447		1.0877		0.4146		C.ar		1		UNL1		-0.1407
18		C		-6.4116		-0.2069		0.1246		C.ar		1		UNL1		0.1305
19		C		-7.8131		-0.4941		0.1397		C.1		1		UNL1		0.2265
20		N		-8.9537		-0.7272		0.1526		N.1		1		UNL1		-0.4865
21		C		-5.4784		-1.2117		-0.1797		C.ar		1		UNL1		-0.1534
22		C		-4.1147		-0.9473		-0.1976		C.ar		1		UNL1		-0.1606
23		N		-0.0376		0.7792		-0.0096		N.ar		1		UNL1		-0.5375
24		C		4.0047		-0.4292		1.1449		C.ar		1		UNL1		-0.1436
25		C		5.2472		-1.0428		1.2754		C.ar		1		UNL1		-0.1805
26		H		8.2288		-0.9667		1.1144		H		1		UNL1		0.1752
27		H		7.5005		-2.5577		0.8876		H		1		UNL1		0.1667
28		H		8.1050		-1.6506		-0.5104		H		1		UNL1		0.1638
29		H		6.6698		-0.0301		-1.6327		H		1		UNL1		0.1389
30		H		4.4669		1.0554		-1.8794		H		1		UNL1		0.1600
31		H		4.1024		2.5185		0.1092		H		1		UNL1		0.3963
32		H		2.1485		-1.6696		-0.7884		H		1		UNL1		0.1571
33		H		-0.0273		-2.9067		-0.9572		H		1		UNL1		0.1540
34		H		-2.1114		1.6886		0.3305		H		1		UNL1		0.3524
35		H		-4.2376		2.3625		0.6241		H		1		UNL1		0.1393
36		H		-6.6526		1.8754		0.6512		H		1		UNL1		0.1573
37		H		-5.8299		-2.2136		-0.4052		H		1		UNL1		0.1564
38		H		-3.4036		-1.7256		-0.4332		H		1		UNL1		0.1873
39		H		3.2581		-0.5477		1.9255		H		1		UNL1		0.1514
40		H		5.4578		-1.6370		2.1616		H		1		UNL1		0.1381
@<TRIPOS>BOND
1		30		4		1
2		29		3		1
3		4		3		ar
4		4		5		ar
5		33		11		1
6		3		2		ar
7		32		10		1
8		11		10		ar
9		11		12		ar
10		10		9		ar
11		28		1		1
12		12		13		ar
13		38		22		1
14		37		21		1
15		9		6		1
16		9		23		ar
17		22		21		ar
18		22		15		ar
19		21		18		ar
20		7		6		2
21		7		8		1
22		13		23		ar
23		13		14		1
24		6		5		1
25		8		31		1
26		5		24		ar
27		15		14		1
28		15		16		ar
29		14		34		1
30		18		19		1
31		18		17		ar
32		19		20		3
33		2		1		1
34		2		25		ar
35		16		17		ar
36		16		35		1
37		17		36		1
38		1		27		1
39		1		26		1
40		24		25		ar
41		24		39		1
42		25		40		1

