@<TRIPOS>MOLECULE
FXQ-2009-CMC-219-10V
 43 46 0 0 0
SMALL
MULLIKEN_CHARGES
****
Gaussian 16 #p B3LYP/6-31G* opt
@<TRIPOS>ATOM
1		C		0.7193		4.4769		-0.5460		C.3		1		UNL1		-0.5212
2		C		-0.1254		3.2350		-0.5080		C.ar		1		UNL1		0.0872
3		C		-1.4954		3.2308		-0.2921		C.ar		1		UNL1		0.0141
4		N		-2.2597		2.1264		-0.2389		N.ar		1		UNL1		-0.4873
5		C		-1.6115		0.9739		-0.4092		C.ar		1		UNL1		0.6999
6		N		-2.2853		-0.2304		-0.3691		N.pl3		1		UNL1		-0.7706
7		C		-3.6285		-0.5464		-0.1705		C.ar		1		UNL1		0.3834
8		C		-3.9664		-1.9156		-0.1853		C.ar		1		UNL1		-0.2062
9		C		-5.2747		-2.3289		0.0007		C.ar		1		UNL1		-0.1407
10		C		-6.2926		-1.3810		0.2086		C.ar		1		UNL1		0.1305
11		C		-7.6468		-1.8006		0.4008		C.1		1		UNL1		0.2264
12		N		-8.7484		-2.1438		0.5567		N.1		1		UNL1		-0.4864
13		C		-5.9562		-0.0172		0.2238		C.ar		1		UNL1		-0.1537
14		C		-4.6456		0.4041		0.0379		C.ar		1		UNL1		-0.1601
15		N		-0.2864		0.8309		-0.6326		N.ar		1		UNL1		-0.5617
16		C		0.4172		1.9436		-0.6764		C.ar		1		UNL1		0.5359
17		O		1.7573		1.8791		-0.9103		O.3		1		UNL1		-0.5600
18		C		2.3806		0.6387		-0.9699		C.ar		1		UNL1		0.3335
19		C		2.5681		0.0474		-2.2377		C.ar		1		UNL1		-0.1490
20		C		3.2627		-1.1316		-2.3463		C.ar		1		UNL1		-0.2050
21		C		3.7989		-1.7709		-1.1975		C.ar		1		UNL1		0.1541
22		C		4.5196		-2.9908		-1.2966		C.ar		1		UNL1		-0.1973
23		C		5.0371		-3.6023		-0.1785		C.ar		1		UNL1		-0.1299
24		C		4.8543		-3.0143		1.0952		C.ar		1		UNL1		-0.1333
25		C		4.1622		-1.8318		1.2309		C.ar		1		UNL1		-0.1871
26		C		3.6150		-1.1750		0.0968		C.ar		1		UNL1		0.0871
27		C		2.8898		0.0506		0.1670		C.ar		1		UNL1		-0.0082
28		BR		2.6027		0.9177		1.8404		Br		1		UNL1		-0.1050
29		H		1.2132		4.5999		-1.5171		H		1		UNL1		0.1710
30		H		0.1077		5.3652		-0.3595		H		1		UNL1		0.1570
31		H		1.5115		4.4381		0.2106		H		1		UNL1		0.1792
32		H		-2.0210		4.1739		-0.1472		H		1		UNL1		0.1483
33		H		-1.6596		-1.0141		-0.5047		H		1		UNL1		0.3481
34		H		-3.1876		-2.6579		-0.3448		H		1		UNL1		0.1360
35		H		-5.5180		-3.3864		-0.0133		H		1		UNL1		0.1565
36		H		-6.7355		0.7212		0.3841		H		1		UNL1		0.1570
37		H		-4.3934		1.4546		0.0515		H		1		UNL1		0.1898
38		H		2.1563		0.5498		-3.1066		H		1		UNL1		0.1502
39		H		3.4114		-1.5907		-3.3199		H		1		UNL1		0.1438
40		H		4.6543		-3.4331		-2.2807		H		1		UNL1		0.1375
41		H		5.5858		-4.5353		-0.2697		H		1		UNL1		0.1383
42		H		5.2642		-3.5007		1.9759		H		1		UNL1		0.1397
43		H		4.0247		-1.3861		2.2095		H		1		UNL1		0.1580
@<TRIPOS>BOND
1		39		20		1
2		38		19		1
3		20		19		ar
4		20		21		ar
5		40		22		1
6		19		18		ar
7		29		1		1
8		22		21		ar
9		22		23		ar
10		21		26		ar
11		18		17		1
12		18		27		ar
13		17		16		1
14		16		15		ar
15		16		2		ar
16		15		5		ar
17		1		2		1
18		1		30		1
19		1		31		1
20		2		3		ar
21		33		6		1
22		5		6		1
23		5		4		ar
24		6		7		1
25		34		8		1
26		3		4		ar
27		3		32		1
28		41		23		1
29		8		7		ar
30		8		9		ar
31		23		24		ar
32		7		14		ar
33		35		9		1
34		9		10		ar
35		14		37		1
36		14		13		ar
37		26		27		ar
38		26		25		ar
39		27		28		1
40		10		13		ar
41		10		11		1
42		13		36		1
43		11		12		3
44		24		25		ar
45		24		42		1
46		25		43		1

