@<TRIPOS>MOLECULE
FXQ-2010-BMC-2370-12D
 37 39 0 0 0
SMALL
MULLIKEN_CHARGES
****
Gaussian 16 #p B3LYP/6-31G* opt
@<TRIPOS>ATOM
1		N		8.2699		1.1674		0.0893		N.1		1		UNL1		-0.4850
2		C		7.1232		0.9666		0.0916		C.1		1		UNL1		0.2272
3		C		5.7135		0.7215		0.0945		C.ar		1		UNL1		0.1311
4		C		4.8060		1.7780		0.2895		C.ar		1		UNL1		-0.1405
5		C		3.4431		1.5331		0.2908		C.ar		1		UNL1		-0.2058
6		C		2.9397		0.2300		0.0982		C.ar		1		UNL1		0.3828
7		N		1.5524		0.0867		0.1146		N.pl3		1		UNL1		-0.7683
8		C		0.7275		-1.0107		-0.0243		C.ar		1		UNL1		0.6941
9		N		1.2454		-2.2288		-0.2214		N.ar		1		UNL1		-0.4770
10		C		0.3476		-3.2178		-0.3403		C.ar		1		UNL1		0.0662
11		C		-1.0223		-3.0231		-0.2692		C.ar		1		UNL1		-0.1822
12		C		-1.4548		-1.7013		-0.0558		C.ar		1		UNL1		0.2995
13		C		-2.9043		-1.3555		0.0628		C.2		1		UNL1		0.1860
14		N		-3.6674		-2.3842		0.2324		N.2		1		UNL1		-0.2341
15		O		-5.0178		-2.0697		0.3223		O.2		1		UNL1		-0.4824
16		C		-3.3497		0.0620		-0.0030		C.ar		1		UNL1		0.1246
17		C		-4.2120		0.5929		0.9688		C.ar		1		UNL1		-0.1350
18		C		-4.6281		1.9206		0.9068		C.ar		1		UNL1		-0.2081
19		C		-4.1854		2.7108		-0.1476		C.ar		1		UNL1		0.3878
20		F		-4.5901		3.9947		-0.2176		F		1		UNL1		-0.2935
21		C		-3.3363		2.2176		-1.1319		C.ar		1		UNL1		-0.2103
22		C		-2.9148		0.8932		-1.0475		C.ar		1		UNL1		-0.1373
23		N		-0.5824		-0.6985		0.0627		N.ar		1		UNL1		-0.5656
24		C		3.8461		-0.8289		-0.0970		C.ar		1		UNL1		-0.1603
25		C		5.2123		-0.5766		-0.0971		C.ar		1		UNL1		-0.1533
26		H		5.1773		2.7866		0.4393		H		1		UNL1		0.1580
27		H		2.7509		2.3580		0.4431		H		1		UNL1		0.1375
28		H		1.0189		0.9335		0.2667		H		1		UNL1		0.3485
29		H		0.7600		-4.2117		-0.5047		H		1		UNL1		0.1558
30		H		-1.7279		-3.8361		-0.3708		H		1		UNL1		0.1657
31		H		-5.4257		-2.9445		0.4279		H		1		UNL1		0.4261
32		H		-4.5597		-0.0370		1.7794		H		1		UNL1		0.1531
33		H		-5.2883		2.3448		1.6559		H		1		UNL1		0.1513
34		H		-3.0156		2.8668		-1.9398		H		1		UNL1		0.1505
35		H		-2.2434		0.5009		-1.8036		H		1		UNL1		0.1456
36		H		3.4683		-1.8302		-0.2445		H		1		UNL1		0.1892
37		H		5.9058		-1.3979		-0.2481		H		1		UNL1		0.1580
@<TRIPOS>BOND
1		34		21		1
2		35		22		1
3		21		22		ar
4		21		19		ar
5		22		16		ar
6		29		10		1
7		30		11		1
8		10		11		ar
9		10		9		ar
10		11		12		ar
11		37		25		1
12		36		24		1
13		9		8		ar
14		20		19		1
15		19		18		ar
16		25		24		ar
17		25		3		ar
18		24		6		ar
19		12		23		ar
20		12		13		1
21		8		23		ar
22		8		7		1
23		16		13		1
24		16		17		ar
25		13		14		2
26		1		2		3
27		2		3		1
28		3		4		ar
29		6		7		1
30		6		5		ar
31		7		28		1
32		14		15		1
33		4		5		ar
34		4		26		1
35		5		27		1
36		15		31		1
37		18		17		ar
38		18		33		1
39		17		32		1

