@<TRIPOS>MOLECULE
FXQ-2009-CMC-219-10A
 43 46 0 0 0
SMALL
MULLIKEN_CHARGES
****
Gaussian 16 #p B3LYP/6-31G* opt
@<TRIPOS>ATOM
1		C		-1.2888		4.4314		-0.4947		C.3		1		UNL1		-0.5141
2		C		-0.6101		3.1260		-0.1799		C.ar		1		UNL1		0.3436
3		C		0.7605		3.0391		0.0172		C.ar		1		UNL1		-0.2575
4		C		1.2628		1.7597		0.3074		C.ar		1		UNL1		0.5788
5		O		2.6018		1.6594		0.4994		O.3		1		UNL1		-0.5713
6		C		3.1653		0.4195		0.8259		C.ar		1		UNL1		0.2862
7		C		3.2275		0.0333		2.1417		C.ar		1		UNL1		-0.1547
8		C		3.8718		-1.1785		2.4847		C.ar		1		UNL1		-0.1515
9		C		4.4382		-1.9670		1.5094		C.ar		1		UNL1		-0.1789
10		C		4.3924		-1.5786		0.1435		C.ar		1		UNL1		0.1202
11		C		4.9740		-2.3671		-0.8858		C.ar		1		UNL1		-0.1956
12		C		4.9204		-1.9657		-2.2011		C.ar		1		UNL1		-0.1304
13		C		4.2829		-0.7504		-2.5507		C.ar		1		UNL1		-0.1360
14		C		3.7073		0.0406		-1.5820		C.ar		1		UNL1		-0.1848
15		C		3.7424		-0.3525		-0.2182		C.ar		1		UNL1		0.1180
16		N		0.5030		0.6841		0.3924		N.ar		1		UNL1		-0.5613
17		C		-0.8174		0.8849		0.1794		C.ar		1		UNL1		0.6993
18		N		-1.5539		-0.2782		0.2787		N.pl3		1		UNL1		-0.7729
19		C		-2.9157		-0.5436		0.1393		C.ar		1		UNL1		0.3828
20		C		-3.3198		-1.8844		0.3067		C.ar		1		UNL1		-0.2059
21		C		-4.6507		-2.2477		0.1888		C.ar		1		UNL1		-0.1408
22		C		-5.6255		-1.2765		-0.1018		C.ar		1		UNL1		0.1308
23		C		-7.0027		-1.6441		-0.2249		C.1		1		UNL1		0.2265
24		N		-8.1232		-1.9443		-0.3248		N.1		1		UNL1		-0.4862
25		C		-5.2232		0.0590		-0.2686		C.ar		1		UNL1		-0.1540
26		C		-3.8896		0.4300		-0.1517		C.ar		1		UNL1		-0.1595
27		N		-1.4143		2.0432		-0.1000		N.ar		1		UNL1		-0.5434
28		H		-2.0416		4.6578		0.2688		H		1		UNL1		0.1794
29		H		-0.5757		5.2585		-0.5439		H		1		UNL1		0.1595
30		H		-1.8155		4.3601		-1.4530		H		1		UNL1		0.1794
31		H		1.4190		3.8964		-0.0416		H		1		UNL1		0.1511
32		H		2.7818		0.6627		2.9052		H		1		UNL1		0.1415
33		H		3.9160		-1.4792		3.5275		H		1		UNL1		0.1379
34		H		4.9344		-2.8978		1.7724		H		1		UNL1		0.1330
35		H		5.4662		-3.2975		-0.6130		H		1		UNL1		0.1339
36		H		5.3702		-2.5794		-2.9768		H		1		UNL1		0.1345
37		H		4.2509		-0.4410		-3.5917		H		1		UNL1		0.1346
38		H		3.2272		0.9762		-1.8480		H		1		UNL1		0.1420
39		H		-0.9651		-1.0740		0.4895		H		1		UNL1		0.3493
40		H		-2.5749		-2.6444		0.5313		H		1		UNL1		0.1371
41		H		-4.9450		-3.2840		0.3204		H		1		UNL1		0.1569
42		H		-5.9691		0.8150		-0.4932		H		1		UNL1		0.1563
43		H		-3.5856		1.4585		-0.2813		H		1		UNL1		0.1863
@<TRIPOS>BOND
1		37		13		1
2		36		12		1
3		13		12		ar
4		13		14		ar
5		12		11		ar
6		38		14		1
7		14		15		ar
8		30		1		1
9		11		35		1
10		11		10		ar
11		29		1		1
12		1		2		1
13		1		28		1
14		42		25		1
15		24		23		3
16		43		26		1
17		25		26		ar
18		25		22		ar
19		23		22		1
20		15		10		ar
21		15		6		ar
22		2		27		ar
23		2		3		ar
24		26		19		ar
25		22		21		ar
26		27		17		ar
27		31		3		1
28		3		4		ar
29		19		18		1
30		19		20		ar
31		10		9		ar
32		17		18		1
33		17		16		ar
34		21		20		ar
35		21		41		1
36		18		39		1
37		20		40		1
38		4		16		ar
39		4		5		1
40		5		6		1
41		6		7		ar
42		9		34		1
43		9		8		ar
44		7		8		ar
45		7		32		1
46		8		33		1

