@<TRIPOS>MOLECULE
FXQ-2010-BMC-2370-12S
 43 46 0 0 0
SMALL
MULLIKEN_CHARGES
****
Gaussian 16 #p B3LYP/6-31G* opt
@<TRIPOS>ATOM
1		N		-8.4411		1.8409		-0.1819		N.1		1		UNL1		-0.4858
2		C		-7.3307		1.4909		-0.1826		C.1		1		UNL1		0.2268
3		C		-5.9656		1.0626		-0.1838		C.ar		1		UNL1		0.1308
4		C		-5.6270		-0.2511		0.1803		C.ar		1		UNL1		-0.1534
5		C		-4.3056		-0.6801		0.1841		C.ar		1		UNL1		-0.1605
6		C		-3.2799		0.2114		-0.1823		C.ar		1		UNL1		0.3829
7		N		-1.9248		-0.1157		-0.2108		N.pl3		1		UNL1		-0.7685
8		C		-1.2415		-1.2821		0.0685		C.ar		1		UNL1		0.6931
9		N		-1.9018		-2.3808		0.4528		N.ar		1		UNL1		-0.4775
10		C		-1.1322		-3.4522		0.6950		C.ar		1		UNL1		0.0660
11		C		0.2471		-3.4509		0.5662		C.ar		1		UNL1		-0.1827
12		C		0.8352		-2.2411		0.1521		C.ar		1		UNL1		0.3019
13		C		2.3110		-2.1105		-0.0454		C.2		1		UNL1		0.1843
14		N		2.9324		-3.2430		-0.0682		N.2		1		UNL1		-0.2347
15		O		4.3076		-3.1169		-0.2234		O.2		1		UNL1		-0.4811
16		C		2.9395		-0.7722		-0.2122		C.ar		1		UNL1		0.1256
17		C		3.8060		-0.5152		-1.3130		C.ar		1		UNL1		-0.1367
18		C		4.3867		0.7193		-1.4736		C.ar		1		UNL1		-0.2053
19		C		4.1554		1.7674		-0.5425		C.ar		1		UNL1		0.1438
20		C		4.7470		3.0516		-0.6743		C.ar		1		UNL1		-0.1928
21		C		4.4974		4.0406		0.2508		C.ar		1		UNL1		-0.1330
22		C		3.6423		3.7912		1.3530		C.ar		1		UNL1		-0.1377
23		C		3.0526		2.5572		1.5079		C.ar		1		UNL1		-0.1884
24		C		3.2897		1.5151		0.5705		C.ar		1		UNL1		0.1270
25		C		2.6906		0.2364		0.6998		C.ar		1		UNL1		-0.2152
26		N		0.0923		-1.1602		-0.0930		N.ar		1		UNL1		-0.5636
27		C		-3.6201		1.5303		-0.5481		C.ar		1		UNL1		-0.2060
28		C		-4.9391		1.9516		-0.5498		C.ar		1		UNL1		-0.1407
29		H		-6.4130		-0.9440		0.4639		H		1		UNL1		0.1575
30		H		-4.0532		-1.6923		0.4649		H		1		UNL1		0.1890
31		H		-1.2934		0.6230		-0.4948		H		1		UNL1		0.3494
32		H		-1.6600		-4.3499		1.0119		H		1		UNL1		0.1549
33		H		0.8476		-4.3265		0.7709		H		1		UNL1		0.1652
34		H		4.6017		-4.0422		-0.2140		H		1		UNL1		0.4253
35		H		4.0019		-1.3065		-2.0276		H		1		UNL1		0.1420
36		H		5.0395		0.9073		-2.3226		H		1		UNL1		0.1334
37		H		5.4033		3.2412		-1.5204		H		1		UNL1		0.1329
38		H		4.9571		5.0189		0.1392		H		1		UNL1		0.1338
39		H		3.4546		4.5799		2.0764		H		1		UNL1		0.1336
40		H		2.3961		2.3618		2.3526		H		1		UNL1		0.1328
41		H		2.0236		0.0589		1.5383		H		1		UNL1		0.1366
42		H		-2.8349		2.2267		-0.8333		H		1		UNL1		0.1380
43		H		-5.1841		2.9699		-0.8340		H		1		UNL1		0.1573
@<TRIPOS>BOND
1		36		18		1
2		35		17		1
3		37		20		1
4		18		17		ar
5		18		19		ar
6		17		16		ar
7		43		28		1
8		42		27		1
9		20		19		ar
10		20		21		ar
11		28		27		ar
12		28		3		ar
13		27		6		ar
14		19		24		ar
15		31		7		1
16		15		34		1
17		15		14		1
18		16		13		1
19		16		25		ar
20		7		6		1
21		7		8		1
22		3		2		1
23		3		4		ar
24		2		1		3
25		6		5		ar
26		26		8		ar
27		26		12		ar
28		14		13		2
29		13		12		1
30		8		9		ar
31		38		21		1
32		12		11		ar
33		4		5		ar
34		4		29		1
35		5		30		1
36		21		22		ar
37		9		10		ar
38		11		10		ar
39		11		33		1
40		24		25		ar
41		24		23		ar
42		10		32		1
43		25		41		1
44		22		23		ar
45		22		39		1
46		23		40		1

