@<TRIPOS>MOLECULE
FXQ-2009-CMC-219-10H
 43 46 0 0 0
SMALL
MULLIKEN_CHARGES
****
Gaussian 16 #p B3LYP/6-31G* opt
@<TRIPOS>ATOM
1		C		3.1535		-4.4504		0.5345		C.3		1		UNL1		-0.5143
2		C		2.1966		-3.2905		0.4857		C.ar		1		UNL1		0.3437
3		C		0.8234		-3.4657		0.5875		C.ar		1		UNL1		-0.2572
4		C		0.0481		-2.2969		0.5296		C.ar		1		UNL1		0.5769
5		O		-1.2988		-2.4524		0.6231		O.3		1		UNL1		-0.5730
6		C		-2.1268		-1.3269		0.6135		C.ar		1		UNL1		0.2985
7		C		-2.3719		-0.6561		1.7843		C.ar		1		UNL1		-0.1530
8		C		-3.2726		0.4313		1.7929		C.ar		1		UNL1		-0.1798
9		C		-3.9035		0.8109		0.6321		C.ar		1		UNL1		0.0349
10		BR		-5.1106		2.2967		0.7139		Br		1		UNL1		-0.1232
11		C		-3.6853		0.1335		-0.6025		C.ar		1		UNL1		0.0892
12		C		-4.3198		0.4849		-1.8234		C.ar		1		UNL1		-0.1913
13		C		-4.0660		-0.2162		-2.9802		C.ar		1		UNL1		-0.1294
14		C		-3.1667		-1.3078		-2.9768		C.ar		1		UNL1		-0.1307
15		C		-2.5323		-1.6782		-1.8137		C.ar		1		UNL1		-0.1871
16		C		-2.7669		-0.9726		-0.6045		C.ar		1		UNL1		0.1186
17		N		0.5602		-1.0900		0.3862		N.ar		1		UNL1		-0.5624
18		C		1.9092		-1.0368		0.2950		C.ar		1		UNL1		0.7005
19		N		2.3815		0.2503		0.1437		N.pl3		1		UNL1		-0.7728
20		C		3.6694		0.7701		0.0113		C.ar		1		UNL1		0.3822
21		C		3.7750		2.1688		-0.1331		C.ar		1		UNL1		-0.2059
22		C		5.0101		2.7798		-0.2701		C.ar		1		UNL1		-0.1407
23		C		6.1849		2.0069		-0.2670		C.ar		1		UNL1		0.1312
24		C		7.4649		2.6306		-0.4081		C.1		1		UNL1		0.2270
25		N		8.5061		3.1388		-0.5229		N.1		1		UNL1		-0.4852
26		C		6.0798		0.6136		-0.1233		C.ar		1		UNL1		-0.1538
27		C		4.8438		-0.0053		0.0146		C.ar		1		UNL1		-0.1593
28		N		2.7522		-2.0683		0.3378		N.ar		1		UNL1		-0.5422
29		H		2.6312		-5.4032		0.6537		H		1		UNL1		0.1601
30		H		3.7492		-4.4853		-0.3845		H		1		UNL1		0.1803
31		H		3.8550		-4.3244		1.3668		H		1		UNL1		0.1805
32		H		0.3612		-4.4373		0.7084		H		1		UNL1		0.1524
33		H		-1.8732		-0.9620		2.6978		H		1		UNL1		0.1503
34		H		-3.4656		0.9647		2.7167		H		1		UNL1		0.1603
35		H		-5.0126		1.3187		-1.8270		H		1		UNL1		0.1596
36		H		-4.5628		0.0695		-3.9030		H		1		UNL1		0.1400
37		H		-2.9790		-1.8558		-3.8959		H		1		UNL1		0.1390
38		H		-1.8491		-2.5202		-1.8009		H		1		UNL1		0.1467
39		H		1.6267		0.9243		0.1241		H		1		UNL1		0.3496
40		H		2.8733		2.7769		-0.1371		H		1		UNL1		0.1383
41		H		5.0742		3.8575		-0.3803		H		1		UNL1		0.1580
42		H		6.9818		0.0097		-0.1199		H		1		UNL1		0.1570
43		H		4.7688		-1.0774		0.1246		H		1		UNL1		0.1863
@<TRIPOS>BOND
1		36		13		1
2		37		14		1
3		13		14		ar
4		13		12		ar
5		14		15		ar
6		35		12		1
7		12		11		ar
8		15		38		1
9		15		16		ar
10		16		11		ar
11		16		6		ar
12		11		9		ar
13		25		24		3
14		24		23		1
15		30		1		1
16		41		22		1
17		22		23		ar
18		22		21		ar
19		23		26		ar
20		40		21		1
21		21		20		ar
22		26		42		1
23		26		27		ar
24		20		27		ar
25		20		19		1
26		27		43		1
27		39		19		1
28		19		18		1
29		18		28		ar
30		18		17		ar
31		28		2		ar
32		17		4		ar
33		2		1		1
34		2		3		ar
35		4		3		ar
36		4		5		1
37		1		29		1
38		1		31		1
39		3		32		1
40		6		5		1
41		6		7		ar
42		9		10		1
43		9		8		ar
44		7		8		ar
45		7		33		1
46		8		34		1

