@<TRIPOS>MOLECULE
FXQ-2009-CMC-219-10X
 43 46 0 0 0
SMALL
MULLIKEN_CHARGES
****
Gaussian 16 #p B3LYP/6-31G* opt
@<TRIPOS>ATOM
1		C		4.5519		3.9756		0.4272		C.3		1		UNL1		-0.5143
2		C		3.4078		3.0017		0.5015		C.ar		1		UNL1		0.3434
3		C		2.0965		3.4206		0.6809		C.ar		1		UNL1		-0.2529
4		C		1.1312		2.4049		0.7307		C.ar		1		UNL1		0.5874
5		O		-0.1598		2.7938		0.9172		O.3		1		UNL1		-0.5636
6		C		-1.1619		1.8328		0.9402		C.ar		1		UNL1		0.3335
7		C		-1.5943		1.3607		2.1985		C.ar		1		UNL1		-0.1497
8		C		-2.6458		0.4823		2.2802		C.ar		1		UNL1		-0.2010
9		C		-3.3109		0.0370		1.1075		C.ar		1		UNL1		0.1547
10		C		-4.3995		-0.8720		1.1820		C.ar		1		UNL1		-0.2261
11		C		-5.0293		-1.2881		0.0353		C.ar		1		UNL1		0.0840
12		BR		-6.4920		-2.5121		0.1404		Br		1		UNL1		-0.1194
13		C		-4.6171		-0.8284		-1.2352		C.ar		1		UNL1		-0.1504
14		C		-3.5655		0.0531		-1.3325		C.ar		1		UNL1		-0.1876
15		C		-2.8807		0.5135		-0.1766		C.ar		1		UNL1		0.0938
16		C		-1.7868		1.4259		-0.2186		C.ar		1		UNL1		-0.0058
17		BR		-1.1563		2.1100		-1.8796		Br		1		UNL1		-0.0972
18		N		1.4125		1.1220		0.6198		N.ar		1		UNL1		-0.5656
19		C		2.7216		0.8277		0.4445		C.ar		1		UNL1		0.7026
20		N		2.9521		-0.5272		0.3291		N.pl3		1		UNL1		-0.7732
21		C		4.1187		-1.2704		0.1468		C.ar		1		UNL1		0.3826
22		C		3.9708		-2.6705		0.0689		C.ar		1		UNL1		-0.2059
23		C		5.0696		-3.4943		-0.1091		C.ar		1		UNL1		-0.1406
24		C		6.3579		-2.9407		-0.2153		C.ar		1		UNL1		0.1312
25		C		7.4983		-3.7852		-0.3986		C.1		1		UNL1		0.2270
26		N		8.4256		-4.4733		-0.5473		N.1		1		UNL1		-0.4852
27		C		6.5052		-1.5460		-0.1383		C.ar		1		UNL1		-0.1538
28		C		5.4069		-0.7141		0.0400		C.ar		1		UNL1		-0.1592
29		N		3.7307		1.6957		0.3815		N.ar		1		UNL1		-0.5422
30		H		4.2129		5.0093		0.5343		H		1		UNL1		0.1606
31		H		5.2825		3.7586		1.2146		H		1		UNL1		0.1799
32		H		5.0726		3.8711		-0.5313		H		1		UNL1		0.1811
33		H		1.8178		4.4624		0.7745		H		1		UNL1		0.1542
34		H		-1.0787		1.7151		3.0849		H		1		UNL1		0.1545
35		H		-2.9823		0.1179		3.2467		H		1		UNL1		0.1488
36		H		-4.7253		-1.2315		2.1526		H		1		UNL1		0.1586
37		H		-5.1323		-1.1735		-2.1247		H		1		UNL1		0.1612
38		H		-3.2474		0.4066		-2.3066		H		1		UNL1		0.1669
39		H		2.0926		-1.0583		0.3874		H		1		UNL1		0.3487
40		H		2.9794		-3.1102		0.1497		H		1		UNL1		0.1374
41		H		4.9388		-4.5701		-0.1670		H		1		UNL1		0.1579
42		H		7.4962		-1.1104		-0.2199		H		1		UNL1		0.1571
43		H		5.5260		0.3580		0.0979		H		1		UNL1		0.1866
@<TRIPOS>BOND
1		38		14		1
2		37		13		1
3		17		16		1
4		14		13		ar
5		14		15		ar
6		13		11		ar
7		26		25		3
8		32		1		1
9		25		24		1
10		42		27		1
11		16		15		ar
12		16		6		ar
13		24		27		ar
14		24		23		ar
15		15		9		ar
16		41		23		1
17		27		28		ar
18		23		22		ar
19		11		12		1
20		11		10		ar
21		28		43		1
22		28		21		ar
23		22		21		ar
24		22		40		1
25		21		20		1
26		20		39		1
27		20		19		1
28		29		19		ar
29		29		2		ar
30		1		2		1
31		1		30		1
32		1		31		1
33		19		18		ar
34		2		3		ar
35		18		4		ar
36		3		4		ar
37		3		33		1
38		4		5		1
39		5		6		1
40		6		7		ar
41		9		10		ar
42		9		8		ar
43		10		36		1
44		7		8		ar
45		7		34		1
46		8		35		1

