@<TRIPOS>MOLECULE
FXQ-2010-BMC-2370-12K
 40 42 0 0 0
SMALL
MULLIKEN_CHARGES
****
Gaussian 16 #p B3LYP/6-31G* opt
@<TRIPOS>ATOM
1		C		4.6005		0.8114		2.0566		C.3		1		UNL1		-0.5361
2		C		4.8334		0.0437		0.7770		C.ar		1		UNL1		0.1735
3		C		6.0176		-0.6798		0.5919		C.ar		1		UNL1		-0.1959
4		C		6.2653		-1.3905		-0.5828		C.ar		1		UNL1		-0.1154
5		C		5.3163		-1.3966		-1.6040		C.ar		1		UNL1		-0.1379
6		C		4.1260		-0.6906		-1.4360		C.ar		1		UNL1		-0.1529
7		C		3.8787		0.0334		-0.2619		C.ar		1		UNL1		0.0319
8		C		2.5836		0.7738		-0.1422		C.2		1		UNL1		0.1681
9		N		2.4613		2.0566		-0.1816		N.2		1		UNL1		-0.2004
10		O		3.6841		2.6994		-0.3557		O.2		1		UNL1		-0.4810
11		C		1.3138		0.0090		0.0300		C.ar		1		UNL1		0.3175
12		C		1.3387		-1.3482		0.3938		C.ar		1		UNL1		-0.2106
13		C		0.1062		-1.9710		0.5525		C.ar		1		UNL1		0.0703
14		N		-1.0628		-1.3487		0.3754		N.ar		1		UNL1		-0.4748
15		C		-0.9716		-0.0542		0.0278		C.ar		1		UNL1		0.6936
16		N		-2.1164		0.6880		-0.1832		N.pl3		1		UNL1		-0.7682
17		C		-3.4727		0.3731		-0.1130		C.ar		1		UNL1		0.3837
18		C		-4.3791		1.4143		-0.4025		C.ar		1		UNL1		-0.2055
19		C		-5.7467		1.2017		-0.3603		C.ar		1		UNL1		-0.1406
20		C		-6.2549		-0.0661		-0.0251		C.ar		1		UNL1		0.1306
21		C		-7.6667		-0.2936		0.0206		C.1		1		UNL1		0.2266
22		N		-8.8158		-0.4773		0.0575		N.1		1		UNL1		-0.4861
23		C		-5.3527		-1.1033		0.2635		C.ar		1		UNL1		-0.1533
24		C		-3.9796		-0.8965		0.2229		C.ar		1		UNL1		-0.1606
25		N		0.1561		0.6524		-0.1567		N.ar		1		UNL1		-0.5444
26		H		4.6047		1.8902		1.8653		H		1		UNL1		0.1814
27		H		5.3794		0.5907		2.7926		H		1		UNL1		0.1538
28		H		3.6316		0.5672		2.5080		H		1		UNL1		0.1603
29		H		6.7590		-0.6832		1.3874		H		1		UNL1		0.1288
30		H		7.1959		-1.9401		-0.6962		H		1		UNL1		0.1343
31		H		5.4973		-1.9464		-2.5233		H		1		UNL1		0.1352
32		H		3.3791		-0.6917		-2.2257		H		1		UNL1		0.1404
33		H		3.4223		3.6345		-0.3614		H		1		UNL1		0.4255
34		H		2.2670		-1.8831		0.5457		H		1		UNL1		0.1643
35		H		0.0471		-3.0204		0.8362		H		1		UNL1		0.1556
36		H		-1.8923		1.6423		-0.4363		H		1		UNL1		0.3492
37		H		-3.9980		2.3989		-0.6631		H		1		UNL1		0.1370
38		H		-6.4302		2.0137		-0.5860		H		1		UNL1		0.1570
39		H		-5.7361		-2.0850		0.5233		H		1		UNL1		0.1570
40		H		-3.2925		-1.6996		0.4464		H		1		UNL1		0.1881
@<TRIPOS>BOND
1		31		5		1
2		32		6		1
3		5		6		ar
4		5		4		ar
5		6		7		ar
6		30		4		1
7		37		18		1
8		38		19		1
9		4		3		ar
10		36		16		1
11		18		19		ar
12		18		17		ar
13		33		10		1
14		19		20		ar
15		10		9		1
16		7		8		1
17		7		2		ar
18		16		17		1
19		16		15		1
20		9		8		2
21		25		15		ar
22		25		11		ar
23		8		11		1
24		17		24		ar
25		20		21		1
26		20		23		ar
27		21		22		3
28		15		14		ar
29		11		12		ar
30		24		23		ar
31		24		40		1
32		23		39		1
33		14		13		ar
34		12		34		1
35		12		13		ar
36		13		35		1
37		3		2		ar
38		3		29		1
39		2		1		1
40		26		1		1
41		1		28		1
42		1		27		1

