@<TRIPOS>MOLECULE
FXQ-2010-BMC-2370-12R
 43 46 0 0 0
SMALL
MULLIKEN_CHARGES
****
Gaussian 16 #p B3LYP/6-31G* opt
@<TRIPOS>ATOM
1		N		-8.4893		1.2340		-0.0418		N.1		1		UNL1		-0.4860
2		C		-7.3497		0.9980		-0.0740		C.1		1		UNL1		0.2267
3		C		-5.9489		0.7098		-0.1142		C.ar		1		UNL1		0.1307
4		C		-5.0283		1.6967		-0.5099		C.ar		1		UNL1		-0.1407
5		C		-3.6741		1.4107		-0.5463		C.ar		1		UNL1		-0.2055
6		C		-3.1920		0.1339		-0.1903		C.ar		1		UNL1		0.3832
7		N		-1.8126		-0.0558		-0.2605		N.pl3		1		UNL1		-0.7686
8		C		-1.0063		-1.1416		0.0134		C.ar		1		UNL1		0.6953
9		N		-1.5392		-2.2946		0.4357		N.ar		1		UNL1		-0.4777
10		C		-0.6580		-3.2771		0.6751		C.ar		1		UNL1		0.0666
11		C		0.7101		-3.1381		0.5077		C.ar		1		UNL1		-0.1876
12		C		1.1571		-1.8830		0.0547		C.ar		1		UNL1		0.3247
13		C		2.5979		-1.5853		-0.1774		C.2		1		UNL1		0.1376
14		N		3.4029		-2.5695		0.0353		N.2		1		UNL1		-0.2205
15		O		4.7312		-2.2387		-0.1878		O.2		1		UNL1		-0.4760
16		C		3.0175		-0.2320		-0.6536		C.ar		1		UNL1		0.0842
17		C		3.2922		-0.0491		-1.9939		C.ar		1		UNL1		-0.1541
18		C		3.6832		1.2156		-2.4902		C.ar		1		UNL1		-0.1418
19		C		3.8011		2.2869		-1.6362		C.ar		1		UNL1		-0.1816
20		C		3.5388		2.1406		-0.2480		C.ar		1		UNL1		0.1221
21		C		3.6635		3.2322		0.6533		C.ar		1		UNL1		-0.1948
22		C		3.4134		3.0739		1.9969		C.ar		1		UNL1		-0.1323
23		C		3.0278		1.8085		2.5011		C.ar		1		UNL1		-0.1360
24		C		2.8965		0.7305		1.6549		C.ar		1		UNL1		-0.1900
25		C		3.1420		0.8601		0.2609		C.ar		1		UNL1		0.1301
26		N		0.3025		-0.8886		-0.1924		N.ar		1		UNL1		-0.5657
27		C		-4.1116		-0.8554		0.2060		C.ar		1		UNL1		-0.1604
28		C		-5.4690		-0.5619		0.2404		C.ar		1		UNL1		-0.1534
29		H		-5.3830		2.6843		-0.7868		H		1		UNL1		0.1571
30		H		-2.9716		2.1819		-0.8535		H		1		UNL1		0.1381
31		H		-1.2670		0.7418		-0.5627		H		1		UNL1		0.3506
32		H		-1.0833		-4.2183		1.0190		H		1		UNL1		0.1545
33		H		1.4033		-3.9438		0.7087		H		1		UNL1		0.1650
34		H		5.1907		-3.0682		0.0221		H		1		UNL1		0.4247
35		H		3.2020		-0.8879		-2.6781		H		1		UNL1		0.1371
36		H		3.8891		1.3327		-3.5505		H		1		UNL1		0.1343
37		H		4.1010		3.2625		-2.0115		H		1		UNL1		0.1322
38		H		3.9651		4.1998		0.2588		H		1		UNL1		0.1317
39		H		3.5136		3.9170		2.6750		H		1		UNL1		0.1326
40		H		2.8362		1.6888		3.5639		H		1		UNL1		0.1328
41		H		2.6078		-0.2374		2.0538		H		1		UNL1		0.1351
42		H		-3.7501		-1.8357		0.4806		H		1		UNL1		0.1888
43		H		-6.1726		-1.3296		0.5470		H		1		UNL1		0.1572
@<TRIPOS>BOND
1		36		18		1
2		35		17		1
3		18		17		ar
4		18		19		ar
5		37		19		1
6		17		16		ar
7		19		20		ar
8		30		5		1
9		29		4		1
10		16		13		1
11		16		25		ar
12		31		7		1
13		5		4		ar
14		5		6		ar
15		4		3		ar
16		7		6		1
17		7		8		1
18		20		25		ar
19		20		21		ar
20		26		8		ar
21		26		12		ar
22		6		27		ar
23		15		34		1
24		15		14		1
25		13		14		2
26		13		12		1
27		3		2		1
28		3		28		ar
29		2		1		3
30		8		9		ar
31		12		11		ar
32		27		28		ar
33		27		42		1
34		28		43		1
35		38		21		1
36		25		24		ar
37		9		10		ar
38		11		10		ar
39		11		33		1
40		21		22		ar
41		10		32		1
42		24		41		1
43		24		23		ar
44		22		23		ar
45		22		39		1
46		23		40		1

