@<TRIPOS>MOLECULE
FXQ-2010-BMC-2370-12N
 41 43 0 0 0
SMALL
MULLIKEN_CHARGES
****
Gaussian 16 #p B3LYP/6-31G* opt
@<TRIPOS>ATOM
1		C		-7.9780		-0.6347		-0.6834		C.3		1		UNL1		-0.2172
2		O		-6.7395		0.0022		-0.9558		O.3		1		UNL1		-0.5061
3		C		-5.6831		-0.2576		-0.1323		C.ar		1		UNL1		0.3751
4		C		-5.7249		-1.1224		0.9677		C.ar		1		UNL1		-0.1901
5		C		-4.5703		-1.3104		1.7332		C.ar		1		UNL1		-0.1414
6		C		-3.3844		-0.6583		1.4141		C.ar		1		UNL1		-0.1658
7		C		-3.3438		0.2182		0.3142		C.ar		1		UNL1		0.0942
8		C		-2.0698		0.9164		-0.0242		C.2		1		UNL1		0.1796
9		N		-1.9237		2.1833		-0.2204		N.2		1		UNL1		-0.2006
10		O		-3.1045		2.9019		-0.0595		O.2		1		UNL1		-0.4840
11		C		-0.8167		0.1173		-0.1798		C.ar		1		UNL1		0.2967
12		C		-0.8659		-1.2278		-0.5849		C.ar		1		UNL1		-0.2021
13		C		0.3536		-1.8750		-0.7369		C.ar		1		UNL1		0.0693
14		N		1.5335		-1.2859		-0.5158		N.ar		1		UNL1		-0.4757
15		C		1.4656		-0.0016		-0.1321		C.ar		1		UNL1		0.6922
16		N		2.6219		0.7077		0.1253		N.pl3		1		UNL1		-0.7679
17		C		3.9716		0.3637		0.0734		C.ar		1		UNL1		0.3837
18		C		4.8956		1.3746		0.4109		C.ar		1		UNL1		-0.2054
19		C		6.2584		1.1310		0.3904		C.ar		1		UNL1		-0.1407
20		C		6.7443		-0.1385		0.0297		C.ar		1		UNL1		0.1304
21		C		8.1511		-0.3980		0.0066		C.1		1		UNL1		0.2264
22		N		9.2961		-0.6080		-0.0117		N.1		1		UNL1		-0.4865
23		C		5.8247		-1.1456		-0.3068		C.ar		1		UNL1		-0.1534
24		C		4.4562		-0.9076		-0.2883		C.ar		1		UNL1		-0.1606
25		N		0.3499		0.7267		0.0529		N.ar		1		UNL1		-0.5357
26		C		-4.4945		0.4123		-0.4520		C.ar		1		UNL1		-0.1915
27		H		-8.6689		-0.2851		-1.4525		H		1		UNL1		0.1736
28		H		-8.3660		-0.3571		0.3055		H		1		UNL1		0.1546
29		H		-7.8924		-1.7279		-0.7435		H		1		UNL1		0.1527
30		H		-6.6359		-1.6460		1.2337		H		1		UNL1		0.1368
31		H		-4.6051		-1.9794		2.5887		H		1		UNL1		0.1372
32		H		-2.4950		-0.8148		2.0166		H		1		UNL1		0.1389
33		H		-2.8111		3.8110		-0.2328		H		1		UNL1		0.4247
34		H		-1.8036		-1.7324		-0.7783		H		1		UNL1		0.1620
35		H		0.3950		-2.9158		-1.0532		H		1		UNL1		0.1547
36		H		2.4139		1.6599		0.3995		H		1		UNL1		0.3492
37		H		4.5318		2.3604		0.6915		H		1		UNL1		0.1370
38		H		6.9556		1.9201		0.6531		H		1		UNL1		0.1567
39		H		6.1908		-2.1284		-0.5868		H		1		UNL1		0.1567
40		H		3.7555		-1.6874		-0.5489		H		1		UNL1		0.1881
41		H		-4.4942		1.0875		-1.2993		H		1		UNL1		0.1543
@<TRIPOS>BOND
1		27		1		1
2		41		26		1
3		35		13		1
4		2		1		1
5		2		3		1
6		34		12		1
7		29		1		1
8		13		12		ar
9		13		14		ar
10		1		28		1
11		39		23		1
12		12		11		ar
13		40		24		1
14		14		15		ar
15		26		3		ar
16		26		7		ar
17		23		24		ar
18		23		20		ar
19		24		17		ar
20		33		10		1
21		9		10		1
22		9		8		2
23		11		8		1
24		11		25		ar
25		3		4		ar
26		15		25		ar
27		15		16		1
28		8		7		1
29		22		21		3
30		21		20		1
31		20		19		ar
32		17		16		1
33		17		18		ar
34		16		36		1
35		7		6		ar
36		19		18		ar
37		19		38		1
38		18		37		1
39		4		30		1
40		4		5		ar
41		6		5		ar
42		6		32		1
43		5		31		1

