@<TRIPOS>MOLECULE
FXQ-2010-BMC-2370-12O
 41 43 0 0 0
SMALL
MULLIKEN_CHARGES
****
Gaussian 16 #p B3LYP/6-31G* opt
@<TRIPOS>ATOM
1		C		-7.5586		-2.0227		-1.0328		C.3		1		UNL1		-0.2223
2		O		-7.1585		-1.1305		-0.0003		O.3		1		UNL1		-0.4998
3		C		-5.9032		-0.6132		-0.0379		C.ar		1		UNL1		0.3861
4		C		-5.5738		0.2623		1.0089		C.ar		1		UNL1		-0.1701
5		C		-4.3147		0.8447		1.0619		C.ar		1		UNL1		-0.1792
6		C		-3.3452		0.5705		0.0755		C.ar		1		UNL1		-0.0053
7		C		-1.9916		1.2028		0.1318		C.2		1		UNL1		0.1674
8		N		-1.7793		2.4773		0.0536		N.2		1		UNL1		-0.1344
9		O		-2.8635		3.2911		-0.1358		O.2		1		UNL1		-0.4810
10		C		-0.7828		0.3502		0.3073		C.ar		1		UNL1		0.3176
11		C		-0.8889		-0.9592		0.8088		C.ar		1		UNL1		-0.2122
12		C		0.2982		-1.6665		0.9533		C.ar		1		UNL1		0.0703
13		N		1.4982		-1.1658		0.6442		N.ar		1		UNL1		-0.4759
14		C		1.4852		0.0935		0.1768		C.ar		1		UNL1		0.6927
15		N		2.6665		0.7164		-0.1715		N.pl3		1		UNL1		-0.7680
16		C		3.9964		0.2991		-0.1484		C.ar		1		UNL1		0.3833
17		C		4.9598		1.2330		-0.5832		C.ar		1		UNL1		-0.2054
18		C		6.3068		0.9128		-0.5992		C.ar		1		UNL1		-0.1408
19		C		6.7363		-0.3587		-0.1787		C.ar		1		UNL1		0.1305
20		C		8.1262		-0.6976		-0.1932		C.1		1		UNL1		0.2264
21		N		9.2574		-0.9730		-0.2057		N.1		1		UNL1		-0.4867
22		C		5.7773		-1.2889		0.2549		C.ar		1		UNL1		-0.1535
23		C		4.4244		-0.9739		0.2735		C.ar		1		UNL1		-0.1606
24		N		0.4054		0.8703		-0.0151		N.ar		1		UNL1		-0.5369
25		C		-3.6898		-0.3058		-0.9625		C.ar		1		UNL1		-0.1545
26		C		-4.9516		-0.8966		-1.0280		C.ar		1		UNL1		-0.1983
27		H		-7.5275		-1.5376		-2.0167		H		1		UNL1		0.1594
28		H		-6.9313		-2.9230		-1.0506		H		1		UNL1		0.1585
29		H		-8.5869		-2.3032		-0.8003		H		1		UNL1		0.1800
30		H		-6.3203		0.4654		1.7700		H		1		UNL1		0.1544
31		H		-4.0682		1.5106		1.8849		H		1		UNL1		0.1623
32		H		-3.6670		2.7353		-0.2511		H		1		UNL1		0.3959
33		H		-1.8422		-1.3947		1.0791		H		1		UNL1		0.1565
34		H		0.2940		-2.6852		1.3376		H		1		UNL1		0.1533
35		H		2.4996		1.6603		-0.4979		H		1		UNL1		0.3522
36		H		4.6397		2.2195		-0.9103		H		1		UNL1		0.1392
37		H		7.0350		1.6432		-0.9367		H		1		UNL1		0.1571
38		H		6.0999		-2.2725		0.5818		H		1		UNL1		0.1562
39		H		3.6932		-1.6948		0.6091		H		1		UNL1		0.1873
40		H		-2.9602		-0.5317		-1.7354		H		1		UNL1		0.1527
41		H		-5.1816		-1.5677		-1.8473		H		1		UNL1		0.1456
@<TRIPOS>BOND
1		27		1		1
2		41		26		1
3		40		25		1
4		28		1		1
5		1		29		1
6		1		2		1
7		26		25		ar
8		26		3		ar
9		25		6		ar
10		37		18		1
11		36		17		1
12		18		17		ar
13		18		19		ar
14		17		16		ar
15		35		15		1
16		32		9		1
17		21		20		3
18		20		19		1
19		19		22		ar
20		15		16		1
21		15		14		1
22		16		23		ar
23		9		8		1
24		3		2		1
25		3		4		ar
26		24		14		ar
27		24		10		ar
28		8		7		2
29		6		7		1
30		6		5		ar
31		7		10		1
32		14		13		ar
33		22		23		ar
34		22		38		1
35		23		39		1
36		10		11		ar
37		13		12		ar
38		11		12		ar
39		11		33		1
40		12		34		1
41		4		5		ar
42		4		30		1
43		5		31		1

