@<TRIPOS>MOLECULE
FXQ-2009-CMC-219-10Q
 40 43 0 0 0
SMALL
MULLIKEN_CHARGES
****
Gaussian 16 #p B3LYP/6-31G* opt
@<TRIPOS>ATOM
1		N		8.4081		2.4989		0.1546		N.1		1		UNL1		-0.4837
2		C		7.3025		2.1364		0.1168		C.1		1		UNL1		0.2280
3		C		5.9427		1.6931		0.0699		C.ar		1		UNL1		0.1318
4		C		4.8945		2.6214		-0.0605		C.ar		1		UNL1		-0.1402
5		C		3.5809		2.1853		-0.1055		C.ar		1		UNL1		-0.2056
6		C		3.2695		0.8129		-0.0221		C.ar		1		UNL1		0.3822
7		N		1.9161		0.4752		-0.0779		N.pl3		1		UNL1		-0.7585
8		C		1.2570		-0.7329		-0.0214		C.ar		1		UNL1		0.6891
9		N		1.9408		-1.8765		0.1109		N.ar		1		UNL1		-0.4794
10		C		1.1971		-2.9882		0.1555		C.ar		1		UNL1		0.0648
11		C		-0.1860		-2.9753		0.0712		C.ar		1		UNL1		0.0133
12		BR		-1.1815		-4.5892		0.1410		Br		1		UNL1		-0.0830
13		C		-0.8086		-1.7170		-0.0658		C.ar		1		UNL1		0.0937
14		S		-2.5828		-1.6294		-0.1795		S.3		1		UNL1		0.1941
15		C		-2.8682		0.1309		-0.3673		C.ar		1		UNL1		-0.0959
16		C		-2.6447		0.7638		-1.6198		C.ar		1		UNL1		-0.1322
17		C		-2.9429		2.0958		-1.7789		C.ar		1		UNL1		-0.1889
18		C		-3.4863		2.8606		-0.7100		C.ar		1		UNL1		0.1364
19		C		-3.8095		4.2364		-0.8470		C.ar		1		UNL1		-0.1921
20		C		-4.3359		4.9447		0.2104		C.ar		1		UNL1		-0.1316
21		C		-4.5650		4.3091		1.4554		C.ar		1		UNL1		-0.1355
22		C		-4.2642		2.9758		1.6200		C.ar		1		UNL1		-0.1864
23		C		-3.7195		2.2178		0.5489		C.ar		1		UNL1		0.1395
24		C		-3.3953		0.8417		0.6899		C.ar		1		UNL1		-0.2088
25		N		-0.0831		-0.6085		-0.1112		N.ar		1		UNL1		-0.5052
26		C		4.3164		-0.1179		0.1087		C.ar		1		UNL1		-0.1595
27		C		5.6323		0.3259		0.1533		C.ar		1		UNL1		-0.1530
28		H		5.1181		3.6812		-0.1257		H		1		UNL1		0.1587
29		H		2.7783		2.9123		-0.2060		H		1		UNL1		0.1386
30		H		1.2687		1.2476		-0.1740		H		1		UNL1		0.3520
31		H		1.7305		-3.9298		0.2629		H		1		UNL1		0.1738
32		H		-2.2397		0.1853		-2.4436		H		1		UNL1		0.1509
33		H		-2.7721		2.5814		-2.7367		H		1		UNL1		0.1387
34		H		-3.6347		4.7230		-1.8036		H		1		UNL1		0.1359
35		H		-4.5788		5.9971		0.0929		H		1		UNL1		0.1377
36		H		-4.9810		4.8796		2.2811		H		1		UNL1		0.1379
37		H		-4.4395		2.4840		2.5737		H		1		UNL1		0.1383
38		H		-3.5672		0.3528		1.6446		H		1		UNL1		0.1546
39		H		4.0865		-1.1715		0.1739		H		1		UNL1		0.1901
40		H		6.4354		-0.3972		0.2543		H		1		UNL1		0.1595
@<TRIPOS>BOND
1		33		17		1
2		32		16		1
3		34		19		1
4		17		16		ar
5		17		18		ar
6		16		15		ar
7		19		18		ar
8		19		20		ar
9		18		23		ar
10		15		14		1
11		15		24		ar
12		29		5		1
13		14		13		1
14		30		7		1
15		28		4		1
16		25		13		ar
17		25		8		ar
18		5		4		ar
19		5		6		ar
20		7		6		1
21		7		8		1
22		13		11		ar
23		4		3		ar
24		6		26		ar
25		8		9		ar
26		3		2		1
27		3		27		ar
28		11		12		1
29		11		10		ar
30		35		20		1
31		26		27		ar
32		26		39		1
33		9		10		ar
34		2		1		3
35		27		40		1
36		10		31		1
37		20		21		ar
38		23		24		ar
39		23		22		ar
40		24		38		1
41		21		22		ar
42		21		36		1
43		22		37		1

