@<TRIPOS>MOLECULE
FXQ-2010-BMC-2370-12H
 37 39 0 0 0
SMALL
MULLIKEN_CHARGES
****
Gaussian 16 #p B3LYP/6-31G* opt
@<TRIPOS>ATOM
1		N		8.7835		0.8865		0.5043		N.1		1		UNL1		-0.4855
2		C		7.6349		0.7427		0.3801		C.1		1		UNL1		0.2270
3		C		6.2231		0.5682		0.2268		C.ar		1		UNL1		0.1309
4		C		5.3752		1.6838		0.1072		C.ar		1		UNL1		-0.1405
5		C		4.0100		1.5072		-0.0418		C.ar		1		UNL1		-0.2055
6		C		3.4445		0.2158		-0.0765		C.ar		1		UNL1		0.3833
7		N		2.0607		0.1428		-0.2323		N.pl3		1		UNL1		-0.7688
8		C		1.1856		-0.9220		-0.2983		C.ar		1		UNL1		0.6971
9		N		1.6367		-2.1786		-0.2074		N.ar		1		UNL1		-0.4776
10		C		0.6950		-3.1310		-0.2808		C.ar		1		UNL1		0.0670
11		C		-0.6548		-2.8640		-0.4396		C.ar		1		UNL1		-0.1839
12		C		-1.0136		-1.5065		-0.5244		C.ar		1		UNL1		0.3301
13		C		-2.4244		-1.0691		-0.6934		C.2		1		UNL1		0.1576
14		N		-3.3029		-2.0105		-0.7201		N.2		1		UNL1		-0.2128
15		O		-4.5931		-1.5339		-0.8729		O.2		1		UNL1		-0.4737
16		C		-2.7437		0.3833		-0.8303		C.ar		1		UNL1		0.1145
17		C		-2.5097		1.0347		-2.0484		C.ar		1		UNL1		-0.1365
18		C		-2.8204		2.3827		-2.2142		C.ar		1		UNL1		-0.1353
19		C		-3.3680		3.1044		-1.1527		C.ar		1		UNL1		-0.1204
20		C		-3.6034		2.4780		0.0707		C.ar		1		UNL1		-0.1600
21		C		-3.2916		1.1282		0.2195		C.ar		1		UNL1		0.0744
22		BR		-3.6125		0.2994		1.9108		Br		1		UNL1		-0.1210
23		N		-0.0981		-0.5383		-0.4576		N.ar		1		UNL1		-0.5737
24		C		4.2912		-0.9022		0.0436		C.ar		1		UNL1		-0.1602
25		C		5.6601		-0.7183		0.1928		C.ar		1		UNL1		-0.1533
26		H		5.7945		2.6844		0.1322		H		1		UNL1		0.1573
27		H		3.3641		2.3775		-0.1328		H		1		UNL1		0.1369
28		H		1.5731		1.0269		-0.3059		H		1		UNL1		0.3489
29		H		1.0542		-4.1559		-0.2079		H		1		UNL1		0.1556
30		H		-1.3984		-3.6475		-0.4944		H		1		UNL1		0.1667
31		H		-5.1254		-2.3453		-0.8350		H		1		UNL1		0.4279
32		H		-2.0796		0.4702		-2.8705		H		1		UNL1		0.1449
33		H		-2.6347		2.8670		-3.1684		H		1		UNL1		0.1407
34		H		-3.6132		4.1561		-1.2712		H		1		UNL1		0.1432
35		H		-4.0253		3.0272		0.9052		H		1		UNL1		0.1576
36		H		3.8655		-1.8948		0.0191		H		1		UNL1		0.1893
37		H		6.3073		-1.5849		0.2849		H		1		UNL1		0.1577
@<TRIPOS>BOND
1		33		18		1
2		32		17		1
3		18		17		ar
4		18		19		ar
5		17		16		ar
6		34		19		1
7		19		20		ar
8		15		31		1
9		15		14		1
10		16		13		1
11		16		21		ar
12		14		13		2
13		13		12		1
14		12		23		ar
15		12		11		ar
16		30		11		1
17		23		8		ar
18		11		10		ar
19		28		7		1
20		8		7		1
21		8		9		ar
22		10		29		1
23		10		9		ar
24		7		6		1
25		27		5		1
26		6		5		ar
27		6		24		ar
28		5		4		ar
29		36		24		1
30		24		25		ar
31		20		21		ar
32		20		35		1
33		4		26		1
34		4		3		ar
35		25		3		ar
36		25		37		1
37		21		22		1
38		3		2		1
39		2		1		3

