@<TRIPOS>MOLECULE
FXQ-2010-BMC-2370-12P
 49 51 0 0 0
SMALL
MULLIKEN_CHARGES
****
Gaussian 16 #p B3LYP/6-31G* opt
@<TRIPOS>ATOM
1		C		-6.6359		-2.2289		1.3624		C.3		1		UNL1		-0.4582
2		C		-6.6149		-1.0639		0.3549		C.3		1		UNL1		0.0140
3		C		-7.6185		0.0103		0.8385		C.3		1		UNL1		-0.4397
4		C		-7.0694		-1.6075		-1.0209		C.3		1		UNL1		-0.4396
5		C		-5.2184		-0.4325		0.2185		C.ar		1		UNL1		0.1874
6		C		-5.0173		0.6482		-0.6589		C.ar		1		UNL1		-0.1975
7		C		-3.7753		1.2547		-0.8071		C.ar		1		UNL1		-0.1434
8		C		-2.6632		0.7917		-0.0853		C.ar		1		UNL1		0.1021
9		C		-1.3164		1.4089		-0.2304		C.2		1		UNL1		0.1802
10		N		-1.0429		2.6702		-0.2068		N.2		1		UNL1		-0.2034
11		O		-2.1636		3.4699		0.0089		O.2		1		UNL1		-0.4878
12		C		-0.1256		0.5309		-0.4487		C.ar		1		UNL1		0.2929
13		C		-0.2490		-0.6981		-1.1200		C.ar		1		UNL1		-0.2019
14		C		0.9209		-1.4223		-1.3088		C.ar		1		UNL1		0.0694
15		N		2.1203		-1.0087		-0.8858		N.ar		1		UNL1		-0.4757
16		C		2.1246		0.1765		-0.2564		C.ar		1		UNL1		0.6921
17		N		3.3068		0.7028		0.2245		N.pl3		1		UNL1		-0.7678
18		C		4.6222		0.2420		0.2048		C.ar		1		UNL1		0.3836
19		C		5.5919		1.0708		0.8067		C.ar		1		UNL1		-0.2054
20		C		6.9257		0.7006		0.8387		C.ar		1		UNL1		-0.1407
21		C		7.3354		-0.5171		0.2665		C.ar		1		UNL1		0.1305
22		C		8.7117		-0.9065		0.2957		C.1		1		UNL1		0.2265
23		N		9.8321		-1.2224		0.3203		N.1		1		UNL1		-0.4864
24		C		6.3701		-1.3427		-0.3333		C.ar		1		UNL1		-0.1534
25		C		5.0303		-0.9771		-0.3687		C.ar		1		UNL1		-0.1606
26		N		1.0607		0.9631		-0.0112		N.ar		1		UNL1		-0.5337
27		C		-2.8496		-0.2909		0.7839		C.ar		1		UNL1		-0.1693
28		C		-4.1034		-0.8837		0.9373		C.ar		1		UNL1		-0.2016
29		H		-5.9653		-3.0420		1.0616		H		1		UNL1		0.1458
30		H		-6.3503		-1.9035		2.3692		H		1		UNL1		0.1478
31		H		-7.6482		-2.6433		1.4249		H		1		UNL1		0.1447
32		H		-7.3252		0.4094		1.8160		H		1		UNL1		0.1503
33		H		-8.6214		-0.4232		0.9347		H		1		UNL1		0.1417
34		H		-7.6850		0.8513		0.1405		H		1		UNL1		0.1447
35		H		-7.1180		-0.8169		-1.7770		H		1		UNL1		0.1443
36		H		-6.3805		-2.3778		-1.3858		H		1		UNL1		0.1472
37		H		-8.0677		-2.0545		-0.9418		H		1		UNL1		0.1424
38		H		-5.8501		1.0319		-1.2415		H		1		UNL1		0.1309
39		H		-3.6636		2.0936		-1.4845		H		1		UNL1		0.1466
40		H		-1.7763		4.3601		0.0092		H		1		UNL1		0.4244
41		H		-1.2037		-1.0584		-1.4810		H		1		UNL1		0.1608
42		H		0.9047		-2.3804		-1.8255		H		1		UNL1		0.1547
43		H		3.1543		1.5994		0.6694		H		1		UNL1		0.3492
44		H		5.2872		2.0148		1.2524		H		1		UNL1		0.1370
45		H		7.6590		1.3500		1.3058		H		1		UNL1		0.1568
46		H		6.6773		-2.2843		-0.7776		H		1		UNL1		0.1568
47		H		4.2942		-1.6176		-0.8323		H		1		UNL1		0.1881
48		H		-2.0089		-0.6716		1.3576		H		1		UNL1		0.1402
49		H		-4.1978		-1.7114		1.6311		H		1		UNL1		0.1329
@<TRIPOS>BOND
1		42		14		1
2		35		4		1
3		39		7		1
4		41		13		1
5		36		4		1
6		14		13		ar
7		14		15		ar
8		38		6		1
9		13		12		ar
10		4		37		1
11		4		2		1
12		15		16		ar
13		47		25		1
14		7		6		ar
15		7		8		ar
16		46		24		1
17		6		5		ar
18		12		9		1
19		12		26		ar
20		25		24		ar
21		25		18		ar
22		24		21		ar
23		16		26		ar
24		16		17		1
25		9		10		2
26		9		8		1
27		10		11		1
28		8		27		ar
29		11		40		1
30		34		3		1
31		18		17		1
32		18		19		ar
33		5		2		1
34		5		28		ar
35		17		43		1
36		21		22		1
37		21		20		ar
38		22		23		3
39		2		3		1
40		2		1		1
41		27		28		ar
42		27		48		1
43		19		20		ar
44		19		44		1
45		3		33		1
46		3		32		1
47		20		45		1
48		28		49		1
49		29		1		1
50		1		31		1
51		1		30		1

