@<TRIPOS>MOLECULE
FXQ-2010-BMC-2370-12I
 37 39 0 0 0
SMALL
MULLIKEN_CHARGES
****
Gaussian 16 #p B3LYP/6-31G* opt
@<TRIPOS>ATOM
1		N		8.8693		-2.0382		-0.2414		N.1		1		UNL1		-0.4846
2		C		7.7612		-1.6838		-0.1967		C.1		1		UNL1		0.2274
3		C		6.3989		-1.2498		-0.1409		C.ar		1		UNL1		0.1313
4		C		6.0762		0.1120		-0.2594		C.ar		1		UNL1		-0.1532
5		C		4.7579		0.5475		-0.2062		C.ar		1		UNL1		-0.1602
6		C		3.7199		-0.3865		-0.0306		C.ar		1		UNL1		0.3827
7		N		2.3662		-0.0566		0.0388		N.pl3		1		UNL1		-0.7683
8		C		1.6951		1.1455		-0.0476		C.ar		1		UNL1		0.6951
9		N		2.3680		2.2875		-0.2330		N.ar		1		UNL1		-0.4766
10		C		1.6106		3.3916		-0.3045		C.ar		1		UNL1		0.0668
11		C		0.2292		3.3827		-0.1968		C.ar		1		UNL1		-0.1829
12		C		-0.3726		2.1257		-0.0053		C.ar		1		UNL1		0.3041
13		C		-1.8534		1.9692		0.1082		C.2		1		UNL1		0.1849
14		N		-2.5209		3.0228		-0.2253		N.2		1		UNL1		-0.2290
15		O		-3.8946		2.8746		-0.0992		O.2		1		UNL1		-0.4790
16		C		-2.4416		0.6776		0.5626		C.ar		1		UNL1		0.1225
17		C		-2.0196		0.0889		1.7629		C.ar		1		UNL1		-0.1296
18		C		-2.5841		-1.1095		2.1948		C.ar		1		UNL1		-0.1433
19		C		-3.5626		-1.7488		1.4322		C.ar		1		UNL1		-0.1399
20		C		-3.9684		-1.1610		0.2360		C.ar		1		UNL1		0.0716
21		BR		-5.3056		-2.0257		-0.8255		Br		1		UNL1		-0.1271
22		C		-3.4286		0.0431		-0.2046		C.ar		1		UNL1		-0.1526
23		N		0.3576		1.0117		0.0722		N.ar		1		UNL1		-0.5672
24		C		4.0441		-1.7538		0.0878		C.ar		1		UNL1		-0.2057
25		C		5.3600		-2.1813		0.0340		C.ar		1		UNL1		-0.1404
26		H		6.8720		0.8377		-0.3951		H		1		UNL1		0.1583
27		H		4.5178		1.5967		-0.2989		H		1		UNL1		0.1893
28		H		1.7255		-0.8297		0.1673		H		1		UNL1		0.3488
29		H		2.1505		4.3252		-0.4521		H		1		UNL1		0.1566
30		H		-0.3613		4.2867		-0.2552		H		1		UNL1		0.1665
31		H		-4.2241		3.7446		-0.3779		H		1		UNL1		0.4279
32		H		-1.2513		0.5711		2.3577		H		1		UNL1		0.1430
33		H		-2.2591		-1.5555		3.1306		H		1		UNL1		0.1444
34		H		-4.0026		-2.6848		1.7584		H		1		UNL1		0.1576
35		H		-3.7717		0.4850		-1.1315		H		1		UNL1		0.1649
36		H		3.2490		-2.4834		0.2227		H		1		UNL1		0.1376
37		H		5.5929		-3.2372		0.1266		H		1		UNL1		0.1582
@<TRIPOS>BOND
1		35		22		1
2		21		20		1
3		29		10		1
4		26		4		1
5		31		15		1
6		10		9		ar
7		10		11		ar
8		27		5		1
9		4		5		ar
10		4		3		ar
11		30		11		1
12		1		2		3
13		9		8		ar
14		14		15		1
15		14		13		2
16		5		6		ar
17		22		20		ar
18		22		16		ar
19		11		12		ar
20		2		3		1
21		3		25		ar
22		8		7		1
23		8		23		ar
24		6		7		1
25		6		24		ar
26		12		23		ar
27		12		13		1
28		25		24		ar
29		25		37		1
30		7		28		1
31		24		36		1
32		13		16		1
33		20		19		ar
34		16		17		ar
35		19		34		1
36		19		18		ar
37		17		18		ar
38		17		32		1
39		18		33		1

