@<TRIPOS>MOLECULE
GSX-2011-BMC-4220-12k
 56 59 0 0 0
SMALL
MULLIKEN_CHARGES
****
Gaussian 16 #p B3LYP/6-31G* opt
@<TRIPOS>ATOM
1		C		1.7397		-2.0228		1.9270		C.3		1		UNL1		-0.5699
2		C		2.5777		-1.4348		0.8152		C.ar		1		UNL1		0.1528
3		C		3.7738		-0.7809		1.1064		C.ar		1		UNL1		-0.2308
4		C		4.5511		-0.2222		0.0899		C.ar		1		UNL1		-0.1440
5		S		6.0968		0.5890		0.5054		S.O2		1		UNL1		1.1600
6		N		7.3203		-0.5681		0.3825		N.3		1		UNL1		-0.7849
7		O		6.0381		0.9411		1.9241		O.2		1		UNL1		-0.5307
8		O		6.3796		1.5637		-0.5469		O.2		1		UNL1		-0.5263
9		C		4.1388		-0.2990		-1.2404		C.ar		1		UNL1		-0.1732
10		C		2.9512		-0.9507		-1.5573		C.ar		1		UNL1		-0.1546
11		C		2.1697		-1.5209		-0.5387		C.ar		1		UNL1		0.2981
12		N		0.9601		-2.1794		-0.8093		N.am		1		UNL1		-0.7302
13		C		0.3233		-2.3656		-2.0058		C.2		1		UNL1		0.5918
14		O		0.7205		-2.0206		-3.1089		O.2		1		UNL1		-0.4978
15		C		-1.0263		-3.0817		-1.8869		C.3		1		UNL1		-0.1193
16		O		-1.2810		-3.5573		-0.5569		O.3		1		UNL1		-0.5553
17		C		-2.5256		-3.2932		-0.0193		C.ar		1		UNL1		0.3068
18		C		-3.4154		-4.3420		0.2010		C.ar		1		UNL1		-0.1746
19		C		-4.6504		-4.1163		0.8103		C.ar		1		UNL1		-0.2086
20		C		-4.9672		-2.8193		1.1937		C.ar		1		UNL1		0.3945
21		F		-6.1527		-2.5803		1.7872		F		1		UNL1		-0.2923
22		C		-4.1001		-1.7488		1.0004		C.ar		1		UNL1		-0.2663
23		C		-2.8711		-1.9908		0.3856		C.ar		1		UNL1		0.3355
24		O		-1.9076		-1.0224		0.2090		O.3		1		UNL1		-0.5921
25		C		-2.2627		0.3028		0.0045		C.ar		1		UNL1		0.3508
26		C		-3.2764		0.6541		-0.9232		C.ar		1		UNL1		-0.1658
27		C		-3.5420		1.9809		-1.1623		C.ar		1		UNL1		-0.1932
28		C		-2.8122		3.0079		-0.5031		C.ar		1		UNL1		0.1428
29		C		-3.0720		4.3789		-0.7371		C.ar		1		UNL1		-0.2128
30		C		-2.3400		5.3571		-0.0830		C.ar		1		UNL1		0.1323
31		C		-2.6147		6.7429		-0.3256		C.1		1		UNL1		0.2373
32		N		-2.8360		7.8690		-0.5171		N.1		1		UNL1		-0.4752
33		C		-1.3122		4.9899		0.8339		C.ar		1		UNL1		-0.1410
34		C		-1.0451		3.6651		1.0747		C.ar		1		UNL1		-0.1932
35		C		-1.7808		2.6383		0.4213		C.ar		1		UNL1		0.1427
36		C		-1.5300		1.2636		0.6617		C.ar		1		UNL1		-0.2527
37		H		1.6264		-3.1110		1.8266		H		1		UNL1		0.1724
38		H		2.2013		-1.8322		2.8994		H		1		UNL1		0.1756
39		H		0.7293		-1.5920		1.9536		H		1		UNL1		0.1737
40		H		4.0967		-0.6812		2.1381		H		1		UNL1		0.1707
41		H		7.2040		-1.3253		1.0514		H		1		UNL1		0.3456
42		H		7.4337		-0.9087		-0.5692		H		1		UNL1		0.3476
43		H		4.7295		0.1689		-2.0213		H		1		UNL1		0.1770
44		H		2.6098		-1.0156		-2.5811		H		1		UNL1		0.1986
45		H		0.4339		-2.5304		-0.0186		H		1		UNL1		0.3735
46		H		-1.0164		-3.9317		-2.5783		H		1		UNL1		0.1876
47		H		-1.8044		-2.3855		-2.2147		H		1		UNL1		0.1797
48		H		-3.1215		-5.3395		-0.1090		H		1		UNL1		0.1581
49		H		-5.3560		-4.9205		0.9855		H		1		UNL1		0.1585
50		H		-4.3789		-0.7572		1.3367		H		1		UNL1		0.1742
51		H		-3.8294		-0.1247		-1.4375		H		1		UNL1		0.1568
52		H		-4.3146		2.2591		-1.8740		H		1		UNL1		0.1530
53		H		-3.8524		4.6632		-1.4367		H		1		UNL1		0.1628
54		H		-0.7469		5.7694		1.3337		H		1		UNL1		0.1653
55		H		-0.2596		3.3868		1.7718		H		1		UNL1		0.1534
56		H		-0.7523		0.9638		1.3573		H		1		UNL1		0.1552
@<TRIPOS>BOND
1		14		13		2
2		44		10		1
3		46		15		1
4		47		15		1
5		43		9		1
6		13		15		1
7		13		12		1
8		15		16		1
9		52		27		1
10		10		9		ar
11		10		11		ar
12		51		26		1
13		53		29		1
14		9		4		ar
15		27		26		ar
16		27		28		ar
17		26		25		ar
18		12		11		1
19		12		45		1
20		29		28		ar
21		29		30		ar
22		42		6		1
23		16		17		1
24		8		5		2
25		11		2		ar
26		32		31		3
27		28		35		ar
28		31		30		1
29		48		18		1
30		30		33		ar
31		17		18		ar
32		17		23		ar
33		25		24		1
34		25		36		ar
35		4		5		1
36		4		3		ar
37		18		19		ar
38		24		23		1
39		6		5		1
40		6		41		1
41		23		22		ar
42		35		36		ar
43		35		34		ar
44		5		7		2
45		36		56		1
46		19		49		1
47		19		20		ar
48		2		3		ar
49		2		1		1
50		33		34		ar
51		33		54		1
52		22		20		ar
53		22		50		1
54		34		55		1
55		3		40		1
56		20		21		1
57		37		1		1
58		1		39		1
59		1		38		1

