@<TRIPOS>MOLECULE
GSX-2019-EJMC277-5-15a6
 55 57 0 0 0
SMALL
MULLIKEN_CHARGES

@<TRIPOS>ATOM
1		C		3.5451		4.2832		-0.1689		C.1		1		UNL1		0.2311
2		N		4.4955		4.9459		-0.2736		N.1		1		UNL1		-0.4747
3		C		1.6283		3.1271		-1.1796		C.ar		1		UNL1		-0.2307
4		C		0.4846		2.3347		-1.0722		C.ar		1		UNL1		0.1806
5		C		0.1275		1.8905		0.2068		C.ar		1		UNL1		0.2306
6		C		0.8347		2.2170		1.3703		C.ar		1		UNL1		0.1772
7		C		1.9734		3.0111		1.2254		C.ar		1		UNL1		-0.2325
8		C		2.3751		3.4639		-0.0406		C.ar		1		UNL1		0.1645
9		C		-1.1008		-0.1487		0.2622		C.ar		1		UNL1		0.5508
10		C		-2.3552		-0.8109		0.3127		C.ar		1		UNL1		0.0057
11		C		-2.2522		-2.2110		0.2810		C.ar		1		UNL1		0.0175
12		N		-1.1140		-2.8878		0.1922		N.ar		1		UNL1		-0.4978
13		C		0.0044		-2.1317		0.1319		C.ar		1		UNL1		0.7013
14		N		0.0566		-0.7928		0.1703		N.ar		1		UNL1		-0.5559
15		C		4.3508		-0.9506		-0.1698		C.ar		1		UNL1		-0.1580
16		C		2.9839		-1.1885		-0.0814		C.ar		1		UNL1		-0.1625
17		C		2.5073		-2.5108		-0.0575		C.ar		1		UNL1		0.3759
18		C		3.4281		-3.5745		-0.1257		C.ar		1		UNL1		-0.2028
19		C		4.7889		-3.3315		-0.2144		C.ar		1		UNL1		-0.1395
20		C		5.2692		-2.0104		-0.2371		C.ar		1		UNL1		0.1349
21		O		-1.0793		1.1916		0.3357		O.3		1		UNL1		-0.5251
22		N		1.1551		-2.8653		0.0277		N.pl3		1		UNL1		-0.7614
23		C		6.6750		-1.7553		-0.3277		C.1		1		UNL1		0.2327
24		N		7.8191		-1.5556		-0.4012		N.1		1		UNL1		-0.4763
25		C		-3.6634		-0.1098		0.3459		C.2		1		UNL1		0.3842
26		C		-0.3454		1.9682		-2.2765		C.3		1		UNL1		-0.5423
27		C		0.3756		1.7285		2.7206		C.3		1		UNL1		-0.5382
28		C		-4.9203		-0.9453		0.6147		C.3		1		UNL1		-0.1930
29		O		-3.7676		1.0918		0.1394		O.2		1		UNL1		-0.4701
30		N		-6.0530		-0.0910		0.9118		N.3		1		UNL1		-0.5631
31		C		-7.3394		-0.5680		0.4276		C.3		1		UNL1		-0.1831
32		C		-7.5767		-0.5578		-1.0713		C.2		1		UNL1		-0.0661
33		C		-6.7958		0.0212		-1.9843		C.2		1		UNL1		-0.3512
34		H		1.9403		3.4943		-2.1523		H		1		UNL1		0.1588
35		H		2.5516		3.2881		2.1013		H		1		UNL1		0.1588
36		H		-3.1508		-2.8221		0.3169		H		1		UNL1		0.1703
37		H		4.7132		0.0723		-0.1877		H		1		UNL1		0.1693
38		H		2.2884		-0.3638		-0.0311		H		1		UNL1		0.1976
39		H		3.0673		-4.6002		-0.1082		H		1		UNL1		0.1427
40		H		5.4873		-4.1602		-0.2660		H		1		UNL1		0.1636
41		H		0.9568		-3.8586		0.0185		H		1		UNL1		0.3550
42		H		-0.2296		0.9061		-2.5269		H		1		UNL1		0.1718
43		H		-0.0423		2.5519		-3.1499		H		1		UNL1		0.1659
44		H		-1.4096		2.1432		-2.0884		H		1		UNL1		0.1951
45		H		0.4703		0.6387		2.7982		H		1		UNL1		0.1746
46		H		-0.6767		1.9772		2.8946		H		1		UNL1		0.1853
47		H		0.9730		2.1760		3.5193		H		1		UNL1		0.1664
48		H		-4.7275		-1.6367		1.4488		H		1		UNL1		0.1587
49		H		-5.0795		-1.5735		-0.2818		H		1		UNL1		0.1583
50		H		-5.8485		0.8509		0.5844		H		1		UNL1		0.3292
51		H		-8.1259		0.0333		0.9078		H		1		UNL1		0.1601
52		H		-7.4930		-1.5889		0.8067		H		1		UNL1		0.1460
53		H		-8.4911		-1.0597		-1.3936		H		1		UNL1		0.1248
54		H		-7.0490		0.0033		-3.0406		H		1		UNL1		0.1411
55		H		-5.8811		0.5428		-1.7122		H		1		UNL1		0.1443
@<TRIPOS>BOND
1		43		26		1
2		54		33		1
3		42		26		1
4		26		44		1
5		26		4		1
6		34		3		1
7		33		55		1
8		33		32		2
9		53		32		1
10		3		4		ar
11		3		8		ar
12		4		5		ar
13		32		31		1
14		24		23		3
15		23		20		1
16		49		28		1
17		2		1		3
18		40		19		1
19		20		19		ar
20		20		15		ar
21		19		18		ar
22		37		15		1
23		15		16		ar
24		1		8		1
25		18		39		1
26		18		17		ar
27		16		17		ar
28		16		38		1
29		17		22		1
30		8		7		ar
31		41		22		1
32		22		13		1
33		13		14		ar
34		13		12		ar
35		29		25		2
36		14		9		ar
37		12		11		ar
38		5		21		1
39		5		6		ar
40		9		10		ar
41		9		21		1
42		11		10		ar
43		11		36		1
44		10		25		1
45		25		28		1
46		31		52		1
47		31		51		1
48		31		30		1
49		50		30		1
50		28		30		1
51		28		48		1
52		7		6		ar
53		7		35		1
54		6		27		1
55		27		45		1
56		27		46		1
57		27		47		1

