@<TRIPOS>MOLECULE
GSX-2019-EJMC277-11-34e
 33 35 0 0 0
SMALL
MULLIKEN_CHARGES
****
Gaussian 16 #p B3LYP/6-31G* opt
@<TRIPOS>ATOM
1		N		0.8237		4.0491		-0.6843		N.am		1		UNL1		-0.7597
2		C		0.9972		2.6772		-0.6283		C.2		1		UNL1		0.5408
3		O		2.0752		2.1334		-0.7973		O.2		1		UNL1		-0.4721
4		C		-0.2661		1.9161		-0.4378		C.ar		1		UNL1		0.2758
5		N		-1.4645		2.4122		-0.9050		N.ar		1		UNL1		-0.7483
6		C		-2.4820		1.5218		-0.6241		C.ar		1		UNL1		0.3415
7		C		-3.8450		1.5898		-0.9319		C.ar		1		UNL1		-0.1596
8		C		-4.6536		0.5515		-0.4973		C.ar		1		UNL1		-0.1435
9		C		-4.1000		-0.5244		0.2286		C.ar		1		UNL1		-0.0776
10		CL		-5.1819		-1.8076		0.7585		Cl		1		UNL1		-0.0200
11		C		-2.7528		-0.6094		0.5352		C.ar		1		UNL1		-0.1863
12		C		-1.9166		0.4327		0.0907		C.ar		1		UNL1		0.0898
13		C		-0.5027		0.6978		0.1763		C.ar		1		UNL1		-0.2798
14		S		0.6546		-0.1942		1.1998		S.O2		1		UNL1		1.2105
15		O		1.2370		0.7869		2.1156		O.2		1		UNL1		-0.5163
16		O		-0.0500		-1.3680		1.7313		O.2		1		UNL1		-0.5403
17		C		1.9609		-0.8427		0.0792		C.ar		1		UNL1		-0.1358
18		C		1.6067		-1.6828		-0.9965		C.ar		1		UNL1		-0.0938
19		CL		-0.0591		-2.0892		-1.3676		Cl		1		UNL1		0.0227
20		C		2.5618		-2.2417		-1.8428		C.ar		1		UNL1		-0.1148
21		C		3.9094		-1.9857		-1.6193		C.ar		1		UNL1		-0.1142
22		C		4.2947		-1.1809		-0.5558		C.ar		1		UNL1		-0.1157
23		C		3.3373		-0.6144		0.2901		C.ar		1		UNL1		-0.0817
24		CL		3.9961		0.3517		1.5896		Cl		1		UNL1		0.0442
25		H		0.1064		4.4595		-0.0980		H		1		UNL1		0.3415
26		H		1.6950		4.5673		-0.7068		H		1		UNL1		0.3515
27		H		-1.5294		3.1962		-1.5395		H		1		UNL1		0.3445
28		H		-4.2616		2.4260		-1.4858		H		1		UNL1		0.1420
29		H		-5.7173		0.5600		-0.7074		H		1		UNL1		0.1588
30		H		-2.3477		-1.4406		1.0969		H		1		UNL1		0.2100
31		H		2.2375		-2.8749		-2.6607		H		1		UNL1		0.1651
32		H		4.6608		-2.4194		-2.2722		H		1		UNL1		0.1551
33		H		5.3418		-0.9780		-0.3626		H		1		UNL1		0.1656
@<TRIPOS>BOND
1		31		20		1
2		32		21		1
3		20		21		ar
4		20		18		ar
5		21		22		ar
6		27		5		1
7		28		7		1
8		19		18		1
9		18		17		ar
10		7		6		ar
11		7		8		ar
12		5		6		ar
13		5		4		ar
14		3		2		2
15		29		8		1
16		26		1		1
17		1		2		1
18		1		25		1
19		2		4		1
20		6		12		ar
21		22		33		1
22		22		23		ar
23		8		9		ar
24		4		13		ar
25		17		23		ar
26		17		14		1
27		12		13		ar
28		12		11		ar
29		13		14		1
30		9		11		ar
31		9		10		1
32		23		24		1
33		11		30		1
34		14		16		2
35		14		15		2

