@<TRIPOS>MOLECULE
GSX-2011-BMC-4220-12r
 55 58 0 0 0
SMALL
MULLIKEN_CHARGES
****
Gaussian 16 #p B3LYP/6-31G* opt
@<TRIPOS>ATOM
1		C		5.1998		1.7235		-2.5140		C.3		1		UNL1		-0.5675
2		C		5.2156		0.7251		-1.3789		C.ar		1		UNL1		0.1558
3		C		6.4298		0.2446		-0.8896		C.ar		1		UNL1		-0.2281
4		C		6.4667		-0.6687		0.1648		C.ar		1		UNL1		-0.1423
5		S		8.0500		-1.2851		0.7460		S.O2		1		UNL1		1.1628
6		N		8.3599		-2.7243		-0.0781		N.3		1		UNL1		-0.7852
7		O		9.0759		-0.3480		0.2897		O.2		1		UNL1		-0.5285
8		O		7.8834		-1.6691		2.1464		O.2		1		UNL1		-0.5250
9		C		5.2851		-1.1089		0.7602		C.ar		1		UNL1		-0.1720
10		C		4.0605		-0.6478		0.2879		C.ar		1		UNL1		-0.1535
11		C		4.0183		0.2623		-0.7811		C.ar		1		UNL1		0.2952
12		N		2.8004		0.7604		-1.2872		N.am		1		UNL1		-0.7335
13		C		1.5067		0.4159		-0.9432		C.2		1		UNL1		0.5970
14		O		1.1962		-0.3782		-0.0765		O.2		1		UNL1		-0.4672
15		C		0.4581		1.1373		-1.8174		C.3		1		UNL1		-0.1432
16		O		-0.8519		0.9458		-1.3607		O.3		1		UNL1		-0.4980
17		C		-1.2817		1.6488		-0.2643		C.ar		1		UNL1		0.3501
18		C		-0.5003		2.5118		0.5034		C.ar		1		UNL1		-0.1898
19		C		-1.0452		3.1918		1.5981		C.ar		1		UNL1		-0.2090
20		C		-2.3807		2.9938		1.9058		C.ar		1		UNL1		0.3854
21		F		-2.9241		3.6448		2.9570		F		1		UNL1		-0.3006
22		C		-3.1914		2.1445		1.1591		C.ar		1		UNL1		-0.2568
23		C		-2.6391		1.4672		0.0749		C.ar		1		UNL1		0.3131
24		O		-3.3798		0.6595		-0.7540		O.3		1		UNL1		-0.5706
25		C		-4.3909		-0.1226		-0.2249		C.ar		1		UNL1		0.3457
26		C		-4.1552		-0.9473		0.9051		C.ar		1		UNL1		-0.1542
27		C		-5.1515		-1.7773		1.3612		C.ar		1		UNL1		-0.2074
28		C		-6.4190		-1.8354		0.7195		C.ar		1		UNL1		0.1492
29		C		-7.4664		-2.6843		1.1668		C.ar		1		UNL1		-0.1890
30		C		-8.6776		-2.7104		0.5120		C.ar		1		UNL1		-0.1390
31		C		-8.9028		-1.8914		-0.6208		C.ar		1		UNL1		-0.2051
32		C		-7.8953		-1.0708		-1.0578		C.ar		1		UNL1		0.3153
33		F		-8.0988		-0.2836		-2.1389		F		1		UNL1		-0.2913
34		C		-6.6290		-1.0011		-0.4258		C.ar		1		UNL1		0.0436
35		C		-5.5984		-0.1416		-0.8826		C.ar		1		UNL1		-0.2434
36		H		6.2181		1.9537		-2.8373		H		1		UNL1		0.1839
37		H		4.6600		1.3445		-3.3933		H		1		UNL1		0.1650
38		H		4.7345		2.6757		-2.2225		H		1		UNL1		0.1683
39		H		7.3622		0.6009		-1.3165		H		1		UNL1		0.1741
40		H		7.6861		-3.4527		0.1454		H		1		UNL1		0.3485
41		H		8.4626		-2.5846		-1.0801		H		1		UNL1		0.3464
42		H		5.3211		-1.7894		1.6048		H		1		UNL1		0.1790
43		H		3.1351		-0.9755		0.7395		H		1		UNL1		0.2011
44		H		2.8903		1.4421		-2.0284		H		1		UNL1		0.3408
45		H		0.4829		0.6962		-2.8207		H		1		UNL1		0.1937
46		H		0.7028		2.2066		-1.9165		H		1		UNL1		0.1559
47		H		0.5509		2.6499		0.2781		H		1		UNL1		0.1382
48		H		-0.4399		3.8550		2.2058		H		1		UNL1		0.1487
49		H		-4.2366		2.0210		1.4176		H		1		UNL1		0.1667
50		H		-3.1848		-0.9204		1.3898		H		1		UNL1		0.1597
51		H		-4.9724		-2.4143		2.2236		H		1		UNL1		0.1417
52		H		-7.2959		-3.3141		2.0359		H		1		UNL1		0.1337
53		H		-9.4740		-3.3620		0.8594		H		1		UNL1		0.1384
54		H		-9.8512		-1.9000		-1.1475		H		1		UNL1		0.1462
55		H		-5.7542		0.4911		-1.7483		H		1		UNL1		0.1570
@<TRIPOS>BOND
1		37		1		1
2		36		1		1
3		45		15		1
4		1		38		1
5		1		2		1
6		33		32		1
7		44		12		1
8		46		15		1
9		15		16		1
10		15		13		1
11		55		35		1
12		2		3		ar
13		2		11		ar
14		16		17		1
15		39		3		1
16		12		13		1
17		12		11		1
18		54		31		1
19		41		6		1
20		32		31		ar
21		32		34		ar
22		13		14		2
23		3		4		ar
24		35		34		ar
25		35		25		ar
26		11		10		ar
27		24		25		1
28		24		23		1
29		31		30		ar
30		34		28		ar
31		17		23		ar
32		17		18		ar
33		25		26		ar
34		6		40		1
35		6		5		1
36		23		22		ar
37		4		5		1
38		4		9		ar
39		47		18		1
40		10		43		1
41		10		9		ar
42		7		5		2
43		18		19		ar
44		30		53		1
45		30		29		ar
46		28		29		ar
47		28		27		ar
48		5		8		2
49		9		42		1
50		26		27		ar
51		26		50		1
52		22		49		1
53		22		20		ar
54		29		52		1
55		27		51		1
56		19		20		ar
57		19		48		1
58		20		21		1

