@<TRIPOS>MOLECULE
GSX-2019-EJMC277-5-15a5
 62 64 0 0 0
SMALL
MULLIKEN_CHARGES

@<TRIPOS>ATOM
1		C		4.2311		4.2507		-0.7733		C.1		1		UNL1		0.2311
2		N		5.1678		4.8617		-1.0936		N.1		1		UNL1		-0.4756
3		C		2.1007		3.1631		-1.3297		C.ar		1		UNL1		-0.2295
4		C		0.9680		2.4348		-0.9623		C.ar		1		UNL1		0.1850
5		C		0.8571		2.0522		0.3806		C.ar		1		UNL1		0.2281
6		C		1.8010		2.3761		1.3629		C.ar		1		UNL1		0.1723
7		C		2.9212		3.1043		0.9593		C.ar		1		UNL1		-0.2336
8		C		3.0770		3.4961		-0.3792		C.ar		1		UNL1		0.1651
9		C		-0.4472		0.0819		0.7042		C.ar		1		UNL1		0.5602
10		C		-1.7330		-0.4755		0.8918		C.ar		1		UNL1		-0.0281
11		C		-1.7500		-1.8761		0.8911		C.ar		1		UNL1		0.0274
12		N		-0.6769		-2.6410		0.7054		N.ar		1		UNL1		-0.4975
13		C		0.4823		-1.9790		0.5115		C.ar		1		UNL1		0.6984
14		N		0.6445		-0.6464		0.5128		N.ar		1		UNL1		-0.5552
15		C		4.8470		-1.1532		-0.2990		C.ar		1		UNL1		-0.1575
16		C		3.4838		-1.2805		-0.0575		C.ar		1		UNL1		-0.1642
17		C		2.9142		-2.5602		0.0655		C.ar		1		UNL1		0.3774
18		C		3.7407		-3.6942		-0.0618		C.ar		1		UNL1		-0.2033
19		C		5.0980		-3.5612		-0.3031		C.ar		1		UNL1		-0.1397
20		C		5.6711		-2.2830		-0.4245		C.ar		1		UNL1		0.1339
21		O		-0.3276		1.4216		0.7766		O.3		1		UNL1		-0.5404
22		N		1.5574		-2.8043		0.3048		N.pl3		1		UNL1		-0.7629
23		C		7.0737		-2.1409		-0.6722		C.1		1		UNL1		0.2316
24		N		8.2150		-2.0319		-0.8726		N.1		1		UNL1		-0.4780
25		C		-2.9800		0.3390		0.9731		C.2		1		UNL1		0.4173
26		C		-0.0997		2.0666		-1.9623		C.3		1		UNL1		-0.5537
27		C		1.6063		1.9533		2.7969		C.3		1		UNL1		-0.5357
28		C		-4.0644		-0.0964		1.9671		C.3		1		UNL1		-0.2236
29		O		-3.1180		1.3683		0.3272		O.2		1		UNL1		-0.4765
30		N		-5.3664		0.5003		1.7438		N.3		1		UNL1		-0.5355
31		C		-6.2470		-0.2010		0.8134		C.3		1		UNL1		-0.1742
32		C		-5.7906		-0.3461		-0.6465		C.3		1		UNL1		0.3657
33		O		-6.8500		-0.8513		-1.4455		O.3		1		UNL1		-0.4736
34		O		-4.7355		-1.2700		-0.6812		O.3		1		UNL1		-0.4826
35		C		-7.6505		0.1395		-2.0643		C.3		1		UNL1		-0.2083
36		C		-4.1249		-1.3933		-1.9625		C.3		1		UNL1		-0.2137
37		H		2.2251		3.4827		-2.3596		H		1		UNL1		0.1579
38		H		3.6775		3.3774		1.6886		H		1		UNL1		0.1579
39		H		-2.6926		-2.4057		1.0038		H		1		UNL1		0.1817
40		H		5.2807		-0.1628		-0.3938		H		1		UNL1		0.1673
41		H		2.8612		-0.4029		0.0347		H		1		UNL1		0.1959
42		H		3.3080		-4.6875		0.0317		H		1		UNL1		0.1418
43		H		5.7225		-4.4434		-0.3986		H		1		UNL1		0.1625
44		H		1.2827		-3.7785		0.3434		H		1		UNL1		0.3536
45		H		0.0076		1.0209		-2.2795		H		1		UNL1		0.1706
46		H		-0.0266		2.6923		-2.8562		H		1		UNL1		0.1639
47		H		-1.1001		2.1731		-1.5316		H		1		UNL1		0.2054
48		H		2.3819		2.3825		3.4370		H		1		UNL1		0.1656
49		H		1.6514		0.8621		2.8950		H		1		UNL1		0.1774
50		H		0.6300		2.2741		3.1759		H		1		UNL1		0.1782
51		H		-3.6850		0.2075		2.9581		H		1		UNL1		0.1684
52		H		-4.1613		-1.1845		2.0029		H		1		UNL1		0.1677
53		H		-5.2275		1.4620		1.4372		H		1		UNL1		0.3100
54		H		-7.2081		0.3262		0.8103		H		1		UNL1		0.1483
55		H		-6.4399		-1.2113		1.1936		H		1		UNL1		0.1607
56		H		-5.4548		0.6254		-1.0541		H		1		UNL1		0.1102
57		H		-8.3634		-0.3867		-2.7039		H		1		UNL1		0.1657
58		H		-7.0473		0.8210		-2.6840		H		1		UNL1		0.1377
59		H		-8.2133		0.7406		-1.3346		H		1		UNL1		0.1388
60		H		-3.3296		-2.1354		-1.8618		H		1		UNL1		0.1567
61		H		-3.6881		-0.4354		-2.2804		H		1		UNL1		0.1414
62		H		-4.8486		-1.7319		-2.7105		H		1		UNL1		0.1641
@<TRIPOS>BOND
1		46		26		1
2		62		36		1
3		57		35		1
4		58		35		1
5		37		3		1
6		61		36		1
7		45		26		1
8		35		33		1
9		35		59		1
10		36		60		1
11		36		34		1
12		26		47		1
13		26		4		1
14		33		32		1
15		3		4		ar
16		3		8		ar
17		2		1		3
18		56		32		1
19		4		5		ar
20		24		23		3
21		1		8		1
22		34		32		1
23		23		20		1
24		32		31		1
25		20		19		ar
26		20		15		ar
27		43		19		1
28		40		15		1
29		8		7		ar
30		19		18		ar
31		15		16		ar
32		18		42		1
33		18		17		ar
34		16		41		1
35		16		17		ar
36		17		22		1
37		22		44		1
38		22		13		1
39		29		25		2
40		5		21		1
41		5		6		ar
42		13		14		ar
43		13		12		ar
44		14		9		ar
45		9		21		1
46		9		10		ar
47		12		11		ar
48		54		31		1
49		31		55		1
50		31		30		1
51		11		10		ar
52		11		39		1
53		10		25		1
54		7		6		ar
55		7		38		1
56		25		28		1
57		6		27		1
58		53		30		1
59		30		28		1
60		28		52		1
61		28		51		1
62		27		49		1
63		27		50		1
64		27		48		1

