@<TRIPOS>MOLECULE
GSX-2019-EJMC277-11-34j
 49 52 0 0 0
SMALL
MULLIKEN_CHARGES

@<TRIPOS>ATOM
1		C		-3.8300		-3.3224		1.0012		C.ar		1		UNL1		-0.1455
2		C		-2.6160		-3.2978		1.6675		C.ar		1		UNL1		-0.1542
3		C		-1.6374		-2.4106		1.2022		C.ar		1		UNL1		0.3696
4		C		-1.8515		-1.5585		0.0862		C.ar		1		UNL1		0.0721
5		C		-3.0872		-1.6046		-0.5881		C.ar		1		UNL1		-0.1918
6		C		-4.0466		-2.4801		-0.1104		C.ar		1		UNL1		-0.0784
7		N		-0.3663		-2.1754		1.6579		N.ar		1		UNL1		-0.7214
8		C		0.2606		-1.2187		0.9072		C.ar		1		UNL1		0.2535
9		C		-0.6316		-0.8071		-0.0883		C.ar		1		UNL1		-0.2927
10		S		-0.4722		0.4836		-1.2917		S.O2		1		UNL1		1.1752
11		O		-1.3424		0.1405		-2.4252		O.2		1		UNL1		-0.5487
12		O		0.9675		0.7351		-1.5289		O.2		1		UNL1		-0.5875
13		C		-1.1523		1.9514		-0.5009		C.ar		1		UNL1		-0.1299
14		C		-0.4099		2.6025		0.4887		C.ar		1		UNL1		-0.2000
15		C		-0.9347		3.7407		1.1010		C.ar		1		UNL1		0.1811
16		C		-2.2017		4.1929		0.6963		C.ar		1		UNL1		-0.2207
17		C		-2.9457		3.5509		-0.2962		C.ar		1		UNL1		0.1802
18		C		-2.4032		2.4068		-0.9014		C.ar		1		UNL1		-0.1961
19		C		1.6613		-0.9468		1.3904		C.2		1		UNL1		0.5863
20		O		2.0096		-1.4960		2.4412		O.2		1		UNL1		-0.5565
21		N		2.4543		-0.1366		0.6563		N.am		1		UNL1		-0.6524
22		CL		-5.6078		-2.5633		-0.9222		Cl		1		UNL1		-0.0260
23		C		3.8379		0.1175		1.0286		C.3		1		UNL1		-0.1735
24		C		4.8100		-0.3816		-0.0125		C.ar		1		UNL1		-0.1450
25		C		-4.3042		4.0621		-0.7155		C.3		1		UNL1		-0.5308
26		C		-0.1560		4.4859		2.1599		C.3		1		UNL1		-0.5306
27		C		4.6382		-1.3586		-0.9555		C.ar		1		UNL1		-0.1098
28		C		5.8034		-1.5874		-1.7521		C.ar		1		UNL1		-0.0968
29		C		6.8502		-0.7828		-1.4051		C.ar		1		UNL1		-0.3446
30		S		6.4262		0.2798		-0.0968		S.2		1		UNL1		0.2393
31		H		-4.6204		-3.9908		1.3239		H		1		UNL1		0.1584
32		H		-2.4334		-3.9449		2.5200		H		1		UNL1		0.1481
33		H		-3.2706		-0.9918		-1.4609		H		1		UNL1		0.1921
34		H		0.1247		-2.5902		2.4422		H		1		UNL1		0.3607
35		H		0.5707		2.2315		0.7713		H		1		UNL1		0.1515
36		H		-2.6174		5.0788		1.1727		H		1		UNL1		0.1289
37		H		-2.9396		1.8827		-1.6859		H		1		UNL1		0.1755
38		H		2.1069		0.2148		-0.2378		H		1		UNL1		0.4127
39		H		3.9988		-0.3781		1.9909		H		1		UNL1		0.2124
40		H		3.9788		1.1947		1.1882		H		1		UNL1		0.1660
41		H		-4.5662		4.9823		-0.1847		H		1		UNL1		0.1594
42		H		-5.0874		3.3220		-0.5107		H		1		UNL1		0.1738
43		H		-4.3341		4.2732		-1.7910		H		1		UNL1		0.1733
44		H		-0.7798		4.7034		3.0344		H		1		UNL1		0.1667
45		H		0.2119		5.4466		1.7778		H		1		UNL1		0.1733
46		H		0.7110		3.9106		2.4987		H		1		UNL1		0.1624
47		H		3.7051		-1.8958		-1.0835		H		1		UNL1		0.1434
48		H		5.8516		-2.3194		-2.5511		H		1		UNL1		0.1439
49		H		7.8415		-0.7404		-1.8357		H		1		UNL1		0.1729
@<TRIPOS>BOND
1		48		28		1
2		11		10		2
3		49		29		1
4		43		25		1
5		28		29		ar
6		28		27		ar
7		37		18		1
8		12		10		2
9		33		5		1
10		29		30		ar
11		10		13		1
12		10		9		1
13		47		27		1
14		27		24		ar
15		22		6		1
16		18		13		ar
17		18		17		ar
18		25		42		1
19		25		17		1
20		25		41		1
21		5		6		ar
22		5		4		ar
23		13		14		ar
24		17		16		ar
25		38		21		1
26		6		1		ar
27		30		24		ar
28		9		4		ar
29		9		8		ar
30		24		23		1
31		4		3		ar
32		14		35		1
33		14		15		ar
34		21		23		1
35		21		19		1
36		16		15		ar
37		16		36		1
38		8		19		1
39		8		7		ar
40		1		31		1
41		1		2		ar
42		23		40		1
43		23		39		1
44		15		26		1
45		3		7		ar
46		3		2		ar
47		19		20		2
48		7		34		1
49		2		32		1
50		45		26		1
51		26		46		1
52		26		44		1

