@<TRIPOS>MOLECULE
GSX-2019-EJMC277-11-34c
 50 53 0 0 0
SMALL
MULLIKEN_CHARGES

@<TRIPOS>ATOM
1		C		4.9187		-1.8984		-0.9890		C.ar		1		UNL1		-0.1455
2		C		3.7747		-2.5389		-1.4357		C.ar		1		UNL1		-0.1549
3		C		2.5494		-2.1376		-0.8889		C.ar		1		UNL1		0.3710
4		C		2.4525		-1.1155		0.0932		C.ar		1		UNL1		0.0697
5		C		3.6268		-0.4830		0.5460		C.ar		1		UNL1		-0.1929
6		C		4.8283		-0.8860		-0.0098		C.ar		1		UNL1		-0.0784
7		N		1.2791		-2.5886		-1.1360		N.ar		1		UNL1		-0.7226
8		C		0.3598		-1.9180		-0.3756		C.ar		1		UNL1		0.2538
9		C		1.0501		-0.9900		0.4093		C.ar		1		UNL1		-0.2874
10		S		0.4219		0.2639		1.4951		S.O2		1		UNL1		1.1752
11		O		1.4832		0.5773		2.4627		O.2		1		UNL1		-0.5517
12		O		-0.9075		-0.1620		1.9896		O.2		1		UNL1		-0.5898
13		C		0.1837		1.7066		0.4464		C.ar		1		UNL1		-0.1359
14		C		-0.9379		1.7724		-0.3859		C.ar		1		UNL1		-0.2185
15		C		-1.0962		2.8800		-1.2215		C.ar		1		UNL1		0.1703
16		C		-0.1240		3.8925		-1.1899		C.ar		1		UNL1		-0.2197
17		C		0.9904		3.8360		-0.3492		C.ar		1		UNL1		0.1794
18		C		1.1427		2.7141		0.4786		C.ar		1		UNL1		-0.1963
19		C		2.0100		4.9507		-0.3182		C.3		1		UNL1		-0.5305
20		C		-2.2940		2.9948		-2.1361		C.3		1		UNL1		-0.5421
21		C		-1.0427		-2.4011		-0.6191		C.2		1		UNL1		0.5937
22		O		-1.2126		-3.2135		-1.5365		O.2		1		UNL1		-0.5643
23		N		-2.0329		-1.9532		0.1789		N.am		1		UNL1		-0.6460
24		C		-3.3927		-2.4134		-0.0039		C.3		1		UNL1		-0.1808
25		CL		6.3195		-0.1158		0.5264		Cl		1		UNL1		-0.0273
26		C		-4.4294		-1.3189		0.1481		C.ar		1		UNL1		0.3058
27		C		-5.7153		-1.6228		0.6065		C.ar		1		UNL1		-0.1752
28		C		-6.6295		-0.5772		0.6751		C.ar		1		UNL1		0.0574
29		N		-6.3129		0.6800		0.3374		N.ar		1		UNL1		-0.3832
30		C		-5.0558		0.8606		-0.0735		C.ar		1		UNL1		0.1779
31		N		-4.0979		-0.0657		-0.1948		N.ar		1		UNL1		-0.4424
32		H		5.8912		-2.1722		-1.3827		H		1		UNL1		0.1576
33		H		3.8302		-3.3241		-2.1836		H		1		UNL1		0.1468
34		H		3.5898		0.2760		1.3164		H		1		UNL1		0.1940
35		H		0.9638		-3.3033		-1.7821		H		1		UNL1		0.3592
36		H		-1.6888		0.9867		-0.3763		H		1		UNL1		0.1963
37		H		-0.2449		4.7550		-1.8431		H		1		UNL1		0.1262
38		H		1.9898		2.6301		1.1516		H		1		UNL1		0.1721
39		H		2.0029		5.4669		0.6499		H		1		UNL1		0.1732
40		H		1.8104		5.6955		-1.0944		H		1		UNL1		0.1583
41		H		3.0256		4.5672		-0.4710		H		1		UNL1		0.1709
42		H		-2.9668		3.7989		-1.8107		H		1		UNL1		0.1668
43		H		-2.8666		2.0632		-2.1564		H		1		UNL1		0.1770
44		H		-1.9898		3.2284		-3.1632		H		1		UNL1		0.1642
45		H		-1.8078		-1.3144		0.9436		H		1		UNL1		0.4149
46		H		-3.6265		-3.2262		0.6980		H		1		UNL1		0.1685
47		H		-3.4523		-2.8438		-1.0102		H		1		UNL1		0.2153
48		H		-5.9884		-2.6319		0.9000		H		1		UNL1		0.1514
49		H		-7.6489		-0.7453		1.0185		H		1		UNL1		0.1602
50		H		-4.7763		1.8772		-0.3424		H		1		UNL1		0.1587
@<TRIPOS>BOND
1		44		20		1
2		33		2		1
3		43		20		1
4		20		42		1
5		20		15		1
6		37		16		1
7		35		7		1
8		22		21		2
9		2		1		ar
10		2		3		ar
11		32		1		1
12		15		16		ar
13		15		14		ar
14		16		17		ar
15		7		3		ar
16		7		8		ar
17		40		19		1
18		47		24		1
19		1		6		ar
20		3		4		ar
21		21		8		1
22		21		23		1
23		41		19		1
24		14		36		1
25		14		13		ar
26		8		9		ar
27		17		19		1
28		17		18		ar
29		50		30		1
30		19		39		1
31		31		30		ar
32		31		26		ar
33		30		29		ar
34		6		25		1
35		6		5		ar
36		24		26		1
37		24		23		1
38		24		46		1
39		4		9		ar
40		4		5		ar
41		26		27		ar
42		23		45		1
43		29		28		ar
44		9		10		1
45		13		18		ar
46		13		10		1
47		18		38		1
48		5		34		1
49		27		28		ar
50		27		48		1
51		28		49		1
52		10		12		2
53		10		11		2

