@<TRIPOS>MOLECULE
GSX-2019-EJMC277-5-15a4
 53 55 0 0 0
SMALL
MULLIKEN_CHARGES

@<TRIPOS>ATOM
1		C		-3.6817		4.1941		0.2446		C.1		1		UNL1		0.2311
2		N		-4.6587		4.8167		0.3505		N.1		1		UNL1		-0.4748
3		C		-1.7267		3.1033		1.2546		C.ar		1		UNL1		-0.2307
4		C		-0.5515		2.3585		1.1456		C.ar		1		UNL1		0.1801
5		C		-0.1689		1.9446		-0.1362		C.ar		1		UNL1		0.2304
6		C		-0.8809		2.2571		-1.3006		C.ar		1		UNL1		0.1776
7		C		-2.0513		3.0034		-1.1540		C.ar		1		UNL1		-0.2326
8		C		-2.4790		3.4240		0.1146		C.ar		1		UNL1		0.1645
9		C		1.1382		-0.0442		-0.2158		C.ar		1		UNL1		0.5513
10		C		2.4182		-0.6559		-0.2612		C.ar		1		UNL1		0.0026
11		C		2.3701		-2.0590		-0.2595		C.ar		1		UNL1		0.0167
12		N		1.2581		-2.7816		-0.2014		N.ar		1		UNL1		-0.4979
13		C		0.1103		-2.0711		-0.1419		C.ar		1		UNL1		0.7012
14		N		0.0060		-0.7348		-0.1537		N.ar		1		UNL1		-0.5558
15		C		-4.2816		-1.0660		0.1361		C.ar		1		UNL1		-0.1581
16		C		-2.9056		-1.2489		0.0576		C.ar		1		UNL1		-0.1626
17		C		-2.3781		-2.5509		0.0070		C.ar		1		UNL1		0.3761
18		C		-3.2576		-3.6507		0.0380		C.ar		1		UNL1		-0.2028
19		C		-4.6276		-3.4624		0.1168		C.ar		1		UNL1		-0.1395
20		C		-5.1589		-2.1617		0.1667		C.ar		1		UNL1		0.1348
21		O		1.0656		1.2954		-0.2638		O.3		1		UNL1		-0.5249
22		N		-1.0122		-2.8510		-0.0697		N.pl3		1		UNL1		-0.7616
23		C		-6.5744		-1.9632		0.2473		C.1		1		UNL1		0.2326
24		N		-7.7261		-1.8093		0.3124		N.1		1		UNL1		-0.4764
25		C		3.6977		0.0975		-0.2605		C.2		1		UNL1		0.3872
26		C		0.2849		2.0103		2.3509		C.3		1		UNL1		-0.5423
27		C		-0.3937		1.8051		-2.6537		C.3		1		UNL1		-0.5384
28		C		4.9899		-0.6841		-0.5243		C.3		1		UNL1		-0.2008
29		O		3.7548		1.2951		-0.0239		O.2		1		UNL1		-0.4623
30		N		6.0726		0.2354		-0.8150		N.3		1		UNL1		-0.5453
31		C		7.4100		-0.2925		-0.5506		C.3		1		UNL1		-0.2815
32		C		7.6649		-0.7153		0.8415		C.1		1		UNL1		0.3089
33		C		7.8264		-1.0492		1.9920		C.1		1		UNL1		-0.4749
34		H		-2.0594		3.4456		2.2295		H		1		UNL1		0.1587
35		H		-2.6343		3.2678		-2.0305		H		1		UNL1		0.1587
36		H		3.2925		-2.6338		-0.2935		H		1		UNL1		0.1704
37		H		-4.6835		-0.0586		0.1751		H		1		UNL1		0.1693
38		H		-2.2418		-0.3972		0.0356		H		1		UNL1		0.1976
39		H		-2.8574		-4.6610		-0.0008		H		1		UNL1		0.1427
40		H		-5.2940		-4.3184		0.1397		H		1		UNL1		0.1635
41		H		-0.7752		-3.8358		-0.0788		H		1		UNL1		0.3549
42		H		0.2075		0.9419		2.5894		H		1		UNL1		0.1716
43		H		-0.0447		2.5729		3.2285		H		1		UNL1		0.1658
44		H		1.3429		2.2265		2.1707		H		1		UNL1		0.1962
45		H		-0.4396		0.7132		-2.7445		H		1		UNL1		0.1746
46		H		0.6474		2.1024		-2.8191		H		1		UNL1		0.1853
47		H		-1.0062		2.2352		-3.4506		H		1		UNL1		0.1663
48		H		4.8484		-1.3777		-1.3647		H		1		UNL1		0.1595
49		H		5.1787		-1.3079		0.3724		H		1		UNL1		0.1595
50		H		5.9065		1.0948		-0.2943		H		1		UNL1		0.3278
51		H		8.1350		0.4795		-0.8356		H		1		UNL1		0.1819
52		H		7.5893		-1.1420		-1.2235		H		1		UNL1		0.1734
53		H		7.9889		-1.3361		3.0063		H		1		UNL1		0.1902
@<TRIPOS>BOND
1		47		27		1
2		46		27		1
3		45		27		1
4		27		6		1
5		35		7		1
6		48		28		1
7		6		7		ar
8		6		5		ar
9		52		31		1
10		7		8		ar
11		51		31		1
12		30		31		1
13		30		28		1
14		30		50		1
15		31		32		1
16		28		25		1
17		28		49		1
18		36		11		1
19		21		9		1
20		21		5		1
21		10		25		1
22		10		11		ar
23		10		9		ar
24		25		29		2
25		11		12		ar
26		9		14		ar
27		12		13		ar
28		14		13		ar
29		13		22		1
30		5		4		ar
31		41		22		1
32		22		17		1
33		39		18		1
34		17		18		ar
35		17		16		ar
36		38		16		1
37		18		19		ar
38		16		15		ar
39		8		1		1
40		8		3		ar
41		19		40		1
42		19		20		ar
43		15		20		ar
44		15		37		1
45		20		23		1
46		1		2		3
47		23		24		3
48		32		33		3
49		4		3		ar
50		4		26		1
51		3		34		1
52		33		53		1
53		44		26		1
54		26		42		1
55		26		43		1

