@<TRIPOS>MOLECULE
GSX-2011-BMC-5117-10b
 37 39 0 0 0
SMALL
MULLIKEN_CHARGES
****
Gaussian 16 #p B3LYP/6-31G* opt
@<TRIPOS>ATOM
1		N		-6.3175		-2.7177		0.6979		N.1		1		UNL1		-0.4859
2		C		-5.5028		-1.9228		0.4535		C.1		1		UNL1		0.2271
3		C		-4.5027		-0.9448		0.1524		C.ar		1		UNL1		0.1320
4		C		-4.7486		0.0554		-0.8048		C.ar		1		UNL1		-0.1410
5		C		-3.7748		0.9974		-1.0918		C.ar		1		UNL1		-0.2039
6		C		-2.5271		0.9744		-0.4360		C.ar		1		UNL1		0.3801
7		N		-1.6202		1.9779		-0.7819		N.pl3		1		UNL1		-0.7620
8		C		-0.3065		2.1948		-0.4264		C.ar		1		UNL1		0.6867
9		N		0.2044		3.3452		-0.9160		N.ar		1		UNL1		-0.4830
10		C		1.4672		3.5964		-0.5799		C.ar		1		UNL1		0.0720
11		C		2.2261		2.7456		0.2254		C.ar		1		UNL1		-0.2008
12		C		1.5980		1.5768		0.6560		C.ar		1		UNL1		0.3387
13		C		2.3476		0.5375		1.4827		C.3		1		UNL1		0.0119
14		O		1.4315		-0.0181		2.4147		O.3		1		UNL1		-0.6132
15		C		2.9729		-0.5252		0.5838		C.ar		1		UNL1		0.1033
16		C		4.3555		-0.5571		0.3711		C.ar		1		UNL1		-0.1834
17		C		4.9212		-1.5336		-0.4522		C.ar		1		UNL1		-0.1311
18		C		4.1159		-2.4914		-1.0669		C.ar		1		UNL1		-0.1921
19		C		2.7434		-2.4447		-0.8391		C.ar		1		UNL1		0.3866
20		F		1.9569		-3.3681		-1.4289		F		1		UNL1		-0.2937
21		C		2.1551		-1.4841		-0.0286		C.ar		1		UNL1		-0.2414
22		N		0.3347		1.2948		0.3270		N.ar		1		UNL1		-0.5177
23		C		-2.2792		-0.0231		0.5267		C.ar		1		UNL1		-0.1719
24		C		-3.2608		-0.9653		0.8085		C.ar		1		UNL1		-0.1561
25		H		-5.7035		0.0859		-1.3196		H		1		UNL1		0.1571
26		H		-3.9745		1.7643		-1.8366		H		1		UNL1		0.1365
27		H		-1.9677		2.7037		-1.3959		H		1		UNL1		0.3472
28		H		1.8897		4.5227		-0.9664		H		1		UNL1		0.1555
29		H		3.2487		2.9829		0.4968		H		1		UNL1		0.1419
30		H		3.1632		1.0614		2.0059		H		1		UNL1		0.1318
31		H		1.8643		-0.7888		2.8151		H		1		UNL1		0.3991
32		H		4.9931		0.1791		0.8540		H		1		UNL1		0.1298
33		H		5.9957		-1.5541		-0.6100		H		1		UNL1		0.1435
34		H		4.5276		-3.2644		-1.7073		H		1		UNL1		0.1521
35		H		1.0805		-1.4756		0.1153		H		1		UNL1		0.1770
36		H		-1.3292		-0.0476		1.0421		H		1		UNL1		0.2101
37		H		-3.0655		-1.7302		1.5535		H		1		UNL1		0.1574
@<TRIPOS>BOND
1		26		5		1
2		34		18		1
3		20		19		1
4		27		7		1
5		25		4		1
6		5		4		ar
7		5		6		ar
8		18		19		ar
9		18		17		ar
10		28		10		1
11		9		10		ar
12		9		8		ar
13		19		21		ar
14		4		3		ar
15		7		6		1
16		7		8		1
17		33		17		1
18		10		11		ar
19		17		16		ar
20		6		23		ar
21		8		22		ar
22		21		35		1
23		21		15		ar
24		3		2		1
25		3		24		ar
26		11		29		1
27		11		12		ar
28		22		12		ar
29		16		15		ar
30		16		32		1
31		2		1		3
32		23		24		ar
33		23		36		1
34		15		13		1
35		12		13		1
36		24		37		1
37		13		30		1
38		13		14		1
39		14		31		1

