@<TRIPOS>MOLECULE
GSX-2011-BMC-7093-1o
 35 37 0 0 0
SMALL
MULLIKEN_CHARGES

@<TRIPOS>ATOM
1		C		1.0783		3.8684		0.1427		C.3		1		UNL1		-0.5142
2		C		1.3944		2.4002		0.0406		C.ar		1		UNL1		0.3450
3		C		2.6937		1.9324		-0.0251		C.ar		1		UNL1		-0.2668
4		C		2.8711		0.5298		-0.1196		C.ar		1		UNL1		0.5832
5		N		4.1279		-0.0111		-0.1665		N.pl3		1		UNL1		-0.6677
6		C		4.3783		-1.3976		-0.4403		C.3		1		UNL1		0.0618
7		C		5.6596		-1.9832		0.0935		C.3		1		UNL1		-0.3432
8		C		4.3359		-2.3882		0.6942		C.3		1		UNL1		-0.2878
9		N		1.8283		-0.3046		-0.1511		N.ar		1		UNL1		-0.5933
10		C		0.6107		0.2684		-0.0745		C.ar		1		UNL1		0.6995
11		N		-0.4133		-0.6634		-0.1048		N.pl3		1		UNL1		-0.7736
12		C		-1.7988		-0.5408		-0.0602		C.ar		1		UNL1		0.3844
13		C		-2.5448		-1.7376		-0.1103		C.ar		1		UNL1		-0.2065
14		C		-3.9286		-1.7190		-0.0726		C.ar		1		UNL1		-0.1413
15		C		-4.6174		-0.4959		0.0166		C.ar		1		UNL1		0.1293
16		C		-6.0470		-0.4685		0.0556		C.1		1		UNL1		0.2246
17		N		-7.2108		-0.4475		0.0871		N.1		1		UNL1		-0.4891
18		C		-3.8756		0.6963		0.0668		C.ar		1		UNL1		-0.1546
19		C		-2.4873		0.6846		0.0298		C.ar		1		UNL1		-0.1598
20		N		0.3280		1.5674		0.0180		N.ar		1		UNL1		-0.5539
21		H		0.4546		4.1793		-0.7031		H		1		UNL1		0.1758
22		H		1.9843		4.4808		0.1567		H		1		UNL1		0.1523
23		H		0.5033		4.0672		1.0542		H		1		UNL1		0.1763
24		H		3.5424		2.6082		-0.0001		H		1		UNL1		0.1250
25		H		4.8829		0.6354		-0.3517		H		1		UNL1		0.3278
26		H		4.0286		-1.7495		-1.4106		H		1		UNL1		0.1575
27		H		6.3016		-1.3346		0.6840		H		1		UNL1		0.1569
28		H		6.1932		-2.6919		-0.5331		H		1		UNL1		0.1608
29		H		4.0874		-1.9998		1.6765		H		1		UNL1		0.1668
30		H		3.9468		-3.3800		0.4833		H		1		UNL1		0.1565
31		H		-0.0513		-1.6059		-0.1720		H		1		UNL1		0.3419
32		H		-2.0237		-2.6899		-0.1796		H		1		UNL1		0.1325
33		H		-4.4861		-2.6494		-0.1120		H		1		UNL1		0.1541
34		H		-4.3987		1.6451		0.1361		H		1		UNL1		0.1540
35		H		-1.9210		1.6037		0.0699		H		1		UNL1		0.1859
@<TRIPOS>BOND
1		26		6		1
2		21		1		1
3		28		7		1
4		6		5		1
5		6		7		1
6		6		8		1
7		25		5		1
8		32		13		1
9		31		11		1
10		5		4		1
11		9		4		ar
12		9		10		ar
13		4		3		ar
14		33		14		1
15		13		14		ar
16		13		12		ar
17		11		10		1
18		11		12		1
19		10		20		ar
20		14		15		ar
21		12		19		ar
22		3		24		1
23		3		2		ar
24		15		16		1
25		15		18		ar
26		20		2		ar
27		19		18		ar
28		19		35		1
29		2		1		1
30		16		17		3
31		18		34		1
32		7		27		1
33		7		8		1
34		1		22		1
35		1		23		1
36		30		8		1
37		8		29		1

