@<TRIPOS>MOLECULE
GSX-2019-EJMC277-11-34g
 45 48 0 0 0
SMALL
MULLIKEN_CHARGES

@<TRIPOS>ATOM
1		C		4.7913		-2.5049		0.0990		C.ar		1		UNL1		-0.1422
2		C		3.5731		-2.9923		-0.3466		C.ar		1		UNL1		-0.1607
3		C		2.5330		-2.0733		-0.5222		C.ar		1		UNL1		0.3449
4		C		2.6952		-0.6847		-0.2772		C.ar		1		UNL1		0.0863
5		C		3.9357		-0.2061		0.1885		C.ar		1		UNL1		-0.1866
6		C		4.9531		-1.1281		0.3629		C.ar		1		UNL1		-0.0770
7		N		1.2297		-2.2804		-0.9258		N.ar		1		UNL1		-0.7668
8		C		0.5666		-1.0678		-1.0085		C.ar		1		UNL1		0.2756
9		C		1.4315		-0.0684		-0.5951		C.ar		1		UNL1		-0.2698
10		S		1.1918		1.7050		-0.6170		S.O2		1		UNL1		1.2140
11		O		1.0973		2.1188		-2.0139		O.2		1		UNL1		-0.4888
12		O		2.2364		2.2838		0.2396		O.2		1		UNL1		-0.5459
13		C		-0.3947		2.0196		0.2570		C.ar		1		UNL1		-0.1555
14		C		-1.4332		2.7992		-0.2961		C.ar		1		UNL1		-0.0804
15		C		-2.5856		3.0818		0.4447		C.ar		1		UNL1		-0.1247
16		C		-2.7256		2.6054		1.7419		C.ar		1		UNL1		-0.1210
17		C		-1.7130		1.8449		2.3170		C.ar		1		UNL1		-0.1164
18		C		-0.5608		1.5685		1.5837		C.ar		1		UNL1		-0.0943
19		C		-0.8564		-0.9999		-1.4210		C.2		1		UNL1		0.5923
20		O		-1.3659		0.0306		-1.8435		O.2		1		UNL1		-0.5088
21		N		-1.5348		-2.1997		-1.3311		N.am		1		UNL1		-0.6209
22		CL		6.5216		-0.5760		0.9381		Cl		1		UNL1		-0.0174
23		CL		0.6572		0.6223		2.4219		Cl		1		UNL1		0.0283
24		CL		-1.3996		3.4984		-1.8942		Cl		1		UNL1		0.0597
25		C		-2.9511		-2.2875		-1.6961		C.3		1		UNL1		-0.2263
26		C		-3.8930		-2.1389		-0.5165		C.ar		1		UNL1		0.1676
27		C		-4.6323		-3.2228		-0.0371		C.ar		1		UNL1		-0.1940
28		C		-5.4757		-3.0385		1.0612		C.ar		1		UNL1		0.0428
29		N		-5.6237		-1.8709		1.6955		N.ar		1		UNL1		-0.4044
30		C		-4.9128		-0.8351		1.2272		C.ar		1		UNL1		0.0373
31		C		-4.0446		-0.9111		0.1398		C.ar		1		UNL1		-0.1881
32		H		5.6280		-3.1774		0.2521		H		1		UNL1		0.1601
33		H		3.4362		-4.0509		-0.5470		H		1		UNL1		0.1419
34		H		4.0794		0.8459		0.3960		H		1		UNL1		0.2114
35		H		0.8994		-3.1190		-1.3824		H		1		UNL1		0.3403
36		H		-3.3610		3.6853		-0.0132		H		1		UNL1		0.1694
37		H		-3.6212		2.8363		2.3113		H		1		UNL1		0.1592
38		H		-1.7971		1.4721		3.3314		H		1		UNL1		0.1695
39		H		-1.2108		-2.8590		-0.6336		H		1		UNL1		0.3290
40		H		-3.1175		-3.2508		-2.1903		H		1		UNL1		0.1607
41		H		-3.1244		-1.4948		-2.4274		H		1		UNL1		0.2102
42		H		-4.5616		-4.1991		-0.5110		H		1		UNL1		0.1321
43		H		-6.0602		-3.8719		1.4481		H		1		UNL1		0.1453
44		H		-5.0479		0.1103		1.7500		H		1		UNL1		0.1396
45		H		-3.5006		-0.0341		-0.1970		H		1		UNL1		0.1728
@<TRIPOS>BOND
1		41		25		1
2		40		25		1
3		11		10		2
4		24		14		1
5		20		19		2
6		25		21		1
7		25		26		1
8		19		21		1
9		19		8		1
10		35		7		1
11		21		39		1
12		8		7		ar
13		8		9		ar
14		7		3		ar
15		10		9		1
16		10		12		2
17		10		13		1
18		9		4		ar
19		33		2		1
20		3		2		ar
21		3		4		ar
22		26		27		ar
23		26		31		ar
24		42		27		1
25		2		1		ar
26		14		13		ar
27		14		15		ar
28		4		5		ar
29		45		31		1
30		27		28		ar
31		36		15		1
32		1		32		1
33		1		6		ar
34		31		30		ar
35		5		6		ar
36		5		34		1
37		13		18		ar
38		6		22		1
39		15		16		ar
40		28		43		1
41		28		29		ar
42		30		29		ar
43		30		44		1
44		18		17		ar
45		18		23		1
46		16		37		1
47		16		17		ar
48		17		38		1

