@<TRIPOS>MOLECULE
GSX-2019-EJMC277-5-15b2
 62 64 0 0 0
SMALL
MULLIKEN_CHARGES

@<TRIPOS>ATOM
1		C		4.1714		4.5075		-0.0375		C.3		1		UNL1		-0.5343
2		C		2.3114		3.2331		-1.1898		C.ar		1		UNL1		-0.2758
3		C		1.1752		2.4174		-1.1871		C.ar		1		UNL1		0.1924
4		C		0.7197		1.9596		0.0521		C.ar		1		UNL1		0.2002
5		C		1.3266		2.2964		1.2644		C.ar		1		UNL1		0.1917
6		C		2.4604		3.1142		1.2055		C.ar		1		UNL1		-0.2782
7		C		2.9681		3.5929		-0.0074		C.ar		1		UNL1		0.2098
8		C		-0.4427		-0.1165		0.0224		C.ar		1		UNL1		0.5534
9		C		-1.6683		-0.8381		-0.0047		C.ar		1		UNL1		0.0041
10		C		-1.5013		-2.2313		-0.0289		C.ar		1		UNL1		0.0137
11		N		-0.3312		-2.8606		-0.0406		N.ar		1		UNL1		-0.5019
12		C		0.7518		-2.0537		-0.0246		C.ar		1		UNL1		0.6990
13		N		0.7433		-0.7167		0.0110		N.ar		1		UNL1		-0.5532
14		C		5.0327		-0.6467		-0.0179		C.ar		1		UNL1		-0.1592
15		C		3.6787		-0.9590		-0.0249		C.ar		1		UNL1		-0.1634
16		C		3.2754		-2.3065		-0.0359		C.ar		1		UNL1		0.3751
17		C		4.2575		-3.3170		-0.0410		C.ar		1		UNL1		-0.2027
18		C		5.6056		-2.9989		-0.0346		C.ar		1		UNL1		-0.1407
19		C		6.0121		-1.6530		-0.0225		C.ar		1		UNL1		0.1338
20		O		-0.4796		1.2189		0.0798		O.3		1		UNL1		-0.5244
21		N		1.9429		-2.7327		-0.0446		N.pl3		1		UNL1		-0.7619
22		C		7.4029		-1.3152		-0.0152		C.1		1		UNL1		0.2296
23		N		8.5342		-1.0409		-0.0092		N.1		1		UNL1		-0.4822
24		C		-3.0070		-0.1978		-0.0490		C.2		1		UNL1		0.3831
25		C		0.4643		2.0368		-2.4620		C.3		1		UNL1		-0.5408
26		C		0.7794		1.7911		2.5759		C.3		1		UNL1		-0.5391
27		C		-4.2442		-1.1006		0.0639		C.3		1		UNL1		-0.1844
28		O		-3.1561		1.0043		-0.2115		O.2		1		UNL1		-0.4627
29		N		-5.4214		-0.3082		0.3372		N.3		1		UNL1		-0.5711
30		C		-6.6719		-0.9255		-0.0855		C.3		1		UNL1		-0.1087
31		C		-7.8618		-0.0057		0.1942		C.3		1		UNL1		-0.2602
32		C		-9.2083		-0.6127		-0.2177		C.3		1		UNL1		-0.2507
33		C		-10.3950		0.3146		0.0640		C.3		1		UNL1		-0.4407
34		H		4.8251		4.3388		0.8246		H		1		UNL1		0.1592
35		H		3.8690		5.5630		-0.0149		H		1		UNL1		0.1694
36		H		4.7648		4.3608		-0.9463		H		1		UNL1		0.1598
37		H		2.6867		3.6011		-2.1425		H		1		UNL1		0.1218
38		H		2.9532		3.3886		2.1359		H		1		UNL1		0.1221
39		H		-2.3721		-2.8817		-0.0515		H		1		UNL1		0.1658
40		H		5.3356		0.3954		-0.0090		H		1		UNL1		0.1632
41		H		2.9379		-0.1732		-0.0219		H		1		UNL1		0.2106
42		H		3.9535		-4.3612		-0.0494		H		1		UNL1		0.1404
43		H		6.3507		-3.7877		-0.0383		H		1		UNL1		0.1605
44		H		1.7962		-3.7346		-0.0644		H		1		UNL1		0.3523
45		H		0.6216		0.9778		-2.7050		H		1		UNL1		0.1642
46		H		0.8332		2.6291		-3.3042		H		1		UNL1		0.1574
47		H		-0.6165		2.1901		-2.3738		H		1		UNL1		0.1865
48		H		1.2893		2.2673		3.4182		H		1		UNL1		0.1581
49		H		0.9149		0.7064		2.6718		H		1		UNL1		0.1669
50		H		-0.2938		1.9921		2.6640		H		1		UNL1		0.1793
51		H		-4.0981		-1.8515		0.8532		H		1		UNL1		0.1569
52		H		-4.3084		-1.6701		-0.8897		H		1		UNL1		0.1353
53		H		-5.2944		0.6059		-0.0947		H		1		UNL1		0.3183
54		H		-6.7990		-1.8639		0.4736		H		1		UNL1		0.1318
55		H		-6.6650		-1.2077		-1.1593		H		1		UNL1		0.1054
56		H		-7.7139		0.9451		-0.3402		H		1		UNL1		0.1284
57		H		-7.8705		0.2406		1.2640		H		1		UNL1		0.1464
58		H		-9.3551		-1.5644		0.3128		H		1		UNL1		0.1313
59		H		-9.1851		-0.8616		-1.2882		H		1		UNL1		0.1309
60		H		-11.3426		-0.1460		-0.2374		H		1		UNL1		0.1419
61		H		-10.2962		1.2614		-0.4811		H		1		UNL1		0.1427
62		H		-10.4650		0.5545		1.1320		H		1		UNL1		0.1438
@<TRIPOS>BOND
1		46		25		1
2		45		25		1
3		25		47		1
4		25		3		1
5		37		2		1
6		59		32		1
7		2		3		ar
8		2		7		ar
9		3		4		ar
10		55		30		1
11		36		1		1
12		52		27		1
13		61		33		1
14		56		31		1
15		60		33		1
16		32		33		1
17		32		31		1
18		32		58		1
19		28		24		2
20		53		29		1
21		30		31		1
22		30		29		1
23		30		54		1
24		44		21		1
25		39		10		1
26		42		17		1
27		24		9		1
28		24		27		1
29		21		16		1
30		21		12		1
31		17		16		ar
32		17		18		ar
33		11		10		ar
34		11		12		ar
35		43		18		1
36		1		35		1
37		1		7		1
38		1		34		1
39		16		15		ar
40		18		19		ar
41		10		9		ar
42		15		41		1
43		15		14		ar
44		12		13		ar
45		19		14		ar
46		19		22		1
47		14		40		1
48		22		23		3
49		7		6		ar
50		9		8		ar
51		13		8		ar
52		8		20		1
53		4		20		1
54		4		5		ar
55		27		29		1
56		27		51		1
57		33		62		1
58		31		57		1
59		6		5		ar
60		6		38		1
61		5		26		1
62		26		50		1
63		26		49		1
64		26		48		1

