@<TRIPOS>MOLECULE
GSX-2011-BMC-5117-10n
 40 42 0 0 0
SMALL
MULLIKEN_CHARGES
****
Gaussian 16 #p B3LYP/6-31G* opt
@<TRIPOS>ATOM
1		C		0.2689		3.3757		0.1806		C.3		1		UNL1		-0.5147
2		C		0.3631		1.8818		0.3371		C.ar		1		UNL1		0.3455
3		C		1.5784		1.2300		0.5447		C.ar		1		UNL1		-0.2533
4		C		1.5461		-0.1651		0.6734		C.ar		1		UNL1		0.3368
5		C		2.8024		-0.9670		1.0073		C.3		1		UNL1		0.0223
6		O		3.0434		-0.9010		2.4124		O.3		1		UNL1		-0.6100
7		C		4.0225		-0.5547		0.1910		C.ar		1		UNL1		0.0427
8		C		5.2287		-0.1750		0.7865		C.ar		1		UNL1		-0.2001
9		C		6.3360		0.1791		0.0112		C.ar		1		UNL1		-0.1271
10		C		6.2537		0.1481		-1.3810		C.ar		1		UNL1		-0.1302
11		C		5.0644		-0.2413		-2.0014		C.ar		1		UNL1		-0.1959
12		C		3.9824		-0.5855		-1.2047		C.ar		1		UNL1		0.3418
13		F		2.8294		-0.9732		-1.8017		F		1		UNL1		-0.2948
14		N		0.4087		-0.8510		0.6005		N.ar		1		UNL1		-0.5541
15		C		-0.7121		-0.1277		0.3907		C.ar		1		UNL1		0.6946
16		N		-1.8481		-0.9067		0.3170		N.pl3		1		UNL1		-0.7695
17		C		-3.1928		-0.5983		0.1143		C.ar		1		UNL1		0.3832
18		C		-4.0953		-1.6820		0.0996		C.ar		1		UNL1		-0.2051
19		C		-5.4510		-1.4780		-0.0944		C.ar		1		UNL1		-0.1406
20		C		-5.9505		-0.1767		-0.2810		C.ar		1		UNL1		0.1310
21		C		-7.3500		0.0425		-0.4819		C.1		1		UNL1		0.2268
22		N		-8.4890		0.2202		-0.6452		N.1		1		UNL1		-0.4856
23		C		-5.0520		0.9029		-0.2666		C.ar		1		UNL1		-0.1535
24		C		-3.6907		0.7049		-0.0724		C.ar		1		UNL1		-0.1599
25		N		-0.7930		1.2007		0.2601		N.ar		1		UNL1		-0.5301
26		H		-0.3951		3.7944		0.9452		H		1		UNL1		0.1803
27		H		-0.1660		3.6256		-0.7936		H		1		UNL1		0.1825
28		H		1.2483		3.8547		0.2619		H		1		UNL1		0.1589
29		H		2.5129		1.7795		0.5798		H		1		UNL1		0.1450
30		H		2.5675		-2.0167		0.8095		H		1		UNL1		0.1823
31		H		3.0386		0.0360		2.6689		H		1		UNL1		0.3918
32		H		5.2950		-0.1827		1.8694		H		1		UNL1		0.1443
33		H		7.2629		0.4703		0.4967		H		1		UNL1		0.1368
34		H		7.1121		0.4198		-1.9887		H		1		UNL1		0.1416
35		H		4.9647		-0.2856		-3.0810		H		1		UNL1		0.1502
36		H		-1.6293		-1.8880		0.4357		H		1		UNL1		0.3488
37		H		-3.7208		-2.6929		0.2429		H		1		UNL1		0.1382
38		H		-6.1320		-2.3229		-0.1029		H		1		UNL1		0.1578
39		H		-5.4290		1.9106		-0.4100		H		1		UNL1		0.1565
40		H		-3.0053		1.5397		-0.0624		H		1		UNL1		0.1846
@<TRIPOS>BOND
1		35		11		1
2		11		10		ar
3		11		12		ar
4		34		10		1
5		13		12		1
6		10		9		ar
7		12		7		ar
8		27		1		1
9		22		21		3
10		21		20		1
11		39		23		1
12		20		23		ar
13		20		19		ar
14		23		24		ar
15		38		19		1
16		19		18		ar
17		24		40		1
18		24		17		ar
19		9		33		1
20		9		8		ar
21		18		17		ar
22		18		37		1
23		17		16		1
24		1		28		1
25		1		2		1
26		1		26		1
27		7		8		ar
28		7		5		1
29		25		2		ar
30		25		15		ar
31		16		15		1
32		16		36		1
33		2		3		ar
34		15		14		ar
35		3		29		1
36		3		4		ar
37		14		4		ar
38		4		5		1
39		8		32		1
40		30		5		1
41		5		6		1
42		6		31		1

