@<TRIPOS>MOLECULE
GSX-2011-BMC-4220-12a
 55 58 0 0 0
SMALL
MULLIKEN_CHARGES
****
Gaussian 16 #p B3LYP/6-31G* opt
@<TRIPOS>ATOM
1		C		-1.4667		-1.1787		-1.2158		C.3		1		UNL1		-0.5685
2		C		-2.6233		-0.7347		-0.3500		C.ar		1		UNL1		0.1566
3		C		-3.9346		-1.0111		-0.7349		C.ar		1		UNL1		-0.2288
4		C		-5.0132		-0.6154		0.0580		C.ar		1		UNL1		-0.1424
5		S		-6.6875		-0.9606		-0.4908		S.O2		1		UNL1		1.1621
6		N		-7.2172		0.3883		-1.3567		N.3		1		UNL1		-0.7852
7		O		-6.6124		-2.0444		-1.4698		O.2		1		UNL1		-0.5287
8		O		-7.5368		-1.0150		0.6978		O.2		1		UNL1		-0.5261
9		C		-4.7991		0.0546		1.2621		C.ar		1		UNL1		-0.1728
10		C		-3.5001		0.3450		1.6670		C.ar		1		UNL1		-0.1544
11		C		-2.4129		-0.0411		0.8665		C.ar		1		UNL1		0.2958
12		N		-1.0830		0.2267		1.2405		N.am		1		UNL1		-0.7253
13		C		-0.6099		0.9328		2.3165		C.2		1		UNL1		0.5832
14		O		-1.2787		1.4678		3.1878		O.2		1		UNL1		-0.4945
15		C		0.9246		0.9591		2.3945		C.3		1		UNL1		-0.1452
16		O		1.5727		0.7307		1.1486		O.3		1		UNL1		-0.5361
17		C		1.7238		1.7893		0.2836		C.ar		1		UNL1		0.3548
18		C		1.1408		3.0483		0.4401		C.ar		1		UNL1		-0.2011
19		C		1.3505		4.0498		-0.5140		C.ar		1		UNL1		-0.2058
20		C		2.1403		3.7732		-1.6189		C.ar		1		UNL1		0.3849
21		F		2.3437		4.7313		-2.5457		F		1		UNL1		-0.2956
22		C		2.7322		2.5268		-1.8030		C.ar		1		UNL1		-0.2565
23		C		2.5234		1.5363		-0.8499		C.ar		1		UNL1		0.3000
24		O		3.0228		0.2736		-1.0813		O.3		1		UNL1		-0.5873
25		C		4.0660		-0.2125		-0.3088		C.ar		1		UNL1		0.3121
26		C		4.8681		0.5872		0.4729		C.ar		1		UNL1		-0.1871
27		C		5.9336		0.0080		1.2031		C.ar		1		UNL1		-0.1471
28		C		6.1841		-1.3421		1.1384		C.ar		1		UNL1		-0.1864
29		C		5.3718		-2.1849		0.3319		C.ar		1		UNL1		0.1318
30		C		5.5983		-3.5843		0.2361		C.ar		1		UNL1		-0.2000
31		C		4.7974		-4.3815		-0.5503		C.ar		1		UNL1		-0.1285
32		C		3.7262		-3.8148		-1.2815		C.ar		1		UNL1		-0.1384
33		C		3.4748		-2.4621		-1.2140		C.ar		1		UNL1		-0.1729
34		C		4.2861		-1.6181		-0.4113		C.ar		1		UNL1		0.0639
35		H		-1.8312		-1.6876		-2.1118		H		1		UNL1		0.1784
36		H		-0.8503		-0.3327		-1.5491		H		1		UNL1		0.1737
37		H		-0.8046		-1.8820		-0.6922		H		1		UNL1		0.1754
38		H		-4.1224		-1.5614		-1.6517		H		1		UNL1		0.1730
39		H		-6.6695		0.5471		-2.1988		H		1		UNL1		0.3461
40		H		-7.2817		1.2200		-0.7749		H		1		UNL1		0.3475
41		H		-5.6405		0.3261		1.8913		H		1		UNL1		0.1778
42		H		-3.3129		0.8603		2.5986		H		1		UNL1		0.1975
43		H		-0.3576		-0.1239		0.6269		H		1		UNL1		0.3671
44		H		1.2327		1.9025		2.8544		H		1		UNL1		0.1862
45		H		1.2502		0.1405		3.0443		H		1		UNL1		0.2042
46		H		0.5032		3.2611		1.2908		H		1		UNL1		0.1700
47		H		0.8981		5.0291		-0.4043		H		1		UNL1		0.1578
48		H		3.3435		2.3221		-2.6744		H		1		UNL1		0.1679
49		H		4.6898		1.6558		0.5256		H		1		UNL1		0.1417
50		H		6.5583		0.6515		1.8165		H		1		UNL1		0.1344
51		H		7.0045		-1.7815		1.6995		H		1		UNL1		0.1296
52		H		6.4222		-4.0165		0.7988		H		1		UNL1		0.1327
53		H		4.9857		-5.4499		-0.6122		H		1		UNL1		0.1331
54		H		3.1002		-4.4527		-1.8996		H		1		UNL1		0.1315
55		H		2.6566		-2.0230		-1.7741		H		1		UNL1		0.1438
@<TRIPOS>BOND
1		48		22		1
2		21		20		1
3		39		6		1
4		35		1		1
5		54		32		1
6		22		20		ar
7		22		23		ar
8		55		33		1
9		38		3		1
10		20		19		ar
11		36		1		1
12		7		5		2
13		6		40		1
14		6		5		1
15		32		33		ar
16		32		31		ar
17		1		37		1
18		1		2		1
19		33		34		ar
20		24		23		1
21		24		25		1
22		23		17		ar
23		3		2		ar
24		3		4		ar
25		53		31		1
26		31		30		ar
27		19		47		1
28		19		18		ar
29		5		4		1
30		5		8		2
31		34		25		ar
32		34		29		ar
33		2		11		ar
34		25		26		ar
35		4		9		ar
36		30		29		ar
37		30		52		1
38		17		18		ar
39		17		16		1
40		29		28		ar
41		18		46		1
42		26		49		1
43		26		27		ar
44		43		12		1
45		11		12		1
46		11		10		ar
47		28		27		ar
48		28		51		1
49		16		15		1
50		27		50		1
51		12		13		1
52		9		10		ar
53		9		41		1
54		10		42		1
55		13		15		1
56		13		14		2
57		15		44		1
58		15		45		1

