@<TRIPOS>MOLECULE
GSX-2011-BMC-5117-10l
 43 45 0 0 0
SMALL
MULLIKEN_CHARGES
****
Gaussian 16 #p B3LYP/6-31G* opt
@<TRIPOS>ATOM
1		C		-5.2661		3.0127		-1.2152		C.3		1		UNL1		-0.5288
2		C		-5.0485		1.5918		-0.7494		C.ar		1		UNL1		0.1781
3		C		-5.9688		0.5809		-1.0498		C.ar		1		UNL1		-0.1719
4		C		-5.7780		-0.7165		-0.5808		C.ar		1		UNL1		-0.1885
5		C		-4.6651		-1.0634		0.1973		C.ar		1		UNL1		0.1230
6		C		-4.5233		-2.4843		0.7040		C.3		1		UNL1		-0.5436
7		C		-3.7275		-0.0532		0.4884		C.ar		1		UNL1		0.0879
8		C		-2.4668		-0.3362		1.2934		C.3		1		UNL1		0.0188
9		O		-2.2136		0.7241		2.1939		O.3		1		UNL1		-0.6417
10		C		-1.2382		-0.5776		0.4041		C.ar		1		UNL1		0.3275
11		C		-1.2794		-1.2603		-0.8176		C.ar		1		UNL1		-0.1939
12		C		-0.0634		-1.4373		-1.4644		C.ar		1		UNL1		0.0698
13		N		1.1038		-0.9928		-0.9815		N.ar		1		UNL1		-0.4779
14		C		1.0350		-0.3471		0.1884		C.ar		1		UNL1		0.7055
15		N		2.1729		0.1610		0.7752		N.pl3		1		UNL1		-0.7656
16		C		3.5149		0.1576		0.3865		C.ar		1		UNL1		0.3819
17		C		4.4255		0.7859		1.2600		C.ar		1		UNL1		-0.2059
18		C		5.7775		0.8358		0.9640		C.ar		1		UNL1		-0.1400
19		C		6.2625		0.2554		-0.2214		C.ar		1		UNL1		0.1321
20		C		7.6580		0.3026		-0.5343		C.1		1		UNL1		0.2284
21		N		8.7936		0.3416		-0.7877		N.1		1		UNL1		-0.4830
22		C		5.3550		-0.3705		-1.0915		C.ar		1		UNL1		-0.1530
23		C		3.9974		-0.4238		-0.8002		C.ar		1		UNL1		-0.1590
24		N		-0.0886		-0.1240		0.9041		N.ar		1		UNL1		-0.6013
25		C		-3.9332		1.2482		0.0193		C.ar		1		UNL1		-0.2205
26		H		-4.3171		3.5467		-1.3307		H		1		UNL1		0.1577
27		H		-5.8714		3.5788		-0.4945		H		1		UNL1		0.1683
28		H		-5.7923		3.0444		-2.1755		H		1		UNL1		0.1552
29		H		-6.8459		0.8106		-1.6510		H		1		UNL1		0.1221
30		H		-6.5126		-1.4826		-0.8187		H		1		UNL1		0.1221
31		H		-3.6003		-2.9683		0.3609		H		1		UNL1		0.1540
32		H		-5.3602		-3.0989		0.3588		H		1		UNL1		0.1595
33		H		-4.5172		-2.5266		1.8008		H		1		UNL1		0.1711
34		H		-2.6087		-1.2722		1.8596		H		1		UNL1		0.1523
35		H		-1.2404		0.7716		2.2667		H		1		UNL1		0.4068
36		H		-2.2106		-1.6072		-1.2473		H		1		UNL1		0.1649
37		H		-0.0111		-1.9550		-2.4205		H		1		UNL1		0.1594
38		H		1.9710		0.6193		1.6545		H		1		UNL1		0.3444
39		H		4.0621		1.2383		2.1798		H		1		UNL1		0.1379
40		H		6.4659		1.3232		1.6466		H		1		UNL1		0.1597
41		H		5.7212		-0.8208		-2.0087		H		1		UNL1		0.1596
42		H		3.3058		-0.9073		-1.4745		H		1		UNL1		0.1902
43		H		-3.2054		2.0095		0.2854		H		1		UNL1		0.1369
@<TRIPOS>BOND
1		37		12		1
2		28		1		1
3		41		22		1
4		29		3		1
5		42		23		1
6		12		13		ar
7		12		11		ar
8		26		1		1
9		36		11		1
10		1		2		1
11		1		27		1
12		22		23		ar
13		22		19		ar
14		3		2		ar
15		3		4		ar
16		13		14		ar
17		30		4		1
18		11		10		ar
19		23		16		ar
20		21		20		3
21		2		25		ar
22		4		5		ar
23		20		19		1
24		19		18		ar
25		25		43		1
26		25		7		ar
27		14		15		1
28		14		24		ar
29		5		7		ar
30		5		6		1
31		32		6		1
32		31		6		1
33		16		15		1
34		16		17		ar
35		10		24		ar
36		10		8		1
37		7		8		1
38		6		33		1
39		15		38		1
40		18		17		ar
41		18		40		1
42		17		39		1
43		8		34		1
44		8		9		1
45		9		35		1

