@<TRIPOS>MOLECULE
GSX-2019-EJMC277-5-15a1
 62 64 0 0 0
SMALL
MULLIKEN_CHARGES

@<TRIPOS>ATOM
1		C		4.4178		4.2976		0.0067		C.1		1		UNL1		0.2311
2		N		5.3691		4.9667		-0.0185		N.1		1		UNL1		-0.4749
3		C		2.5640		3.1798		-1.1536		C.ar		1		UNL1		-0.2305
4		C		1.4202		2.3804		-1.1411		C.ar		1		UNL1		0.1794
5		C		0.9969		1.8818		0.0971		C.ar		1		UNL1		0.2301
6		C		1.6381		2.1620		1.3099		C.ar		1		UNL1		0.1784
7		C		2.7793		2.9640		1.2595		C.ar		1		UNL1		-0.2328
8		C		3.2467		3.4703		0.0372		C.ar		1		UNL1		0.1646
9		C		-0.2222		-0.1629		0.0216		C.ar		1		UNL1		0.5510
10		C		-1.4746		-0.8283		-0.0391		C.ar		1		UNL1		0.0033
11		C		-1.3642		-2.2270		-0.0897		C.ar		1		UNL1		0.0167
12		N		-0.2199		-2.8998		-0.1046		N.ar		1		UNL1		-0.4980
13		C		0.8970		-2.1403		-0.0658		C.ar		1		UNL1		0.7010
14		N		0.9412		-0.8024		0.0042		N.ar		1		UNL1		-0.5557
15		C		5.2485		-0.9416		-0.0315		C.ar		1		UNL1		-0.1581
16		C		3.8799		-1.1853		-0.0497		C.ar		1		UNL1		-0.1626
17		C		3.4085		-2.5094		-0.0755		C.ar		1		UNL1		0.3759
18		C		4.3365		-3.5691		-0.0847		C.ar		1		UNL1		-0.2027
19		C		5.6990		-3.3203		-0.0669		C.ar		1		UNL1		-0.1395
20		C		6.1740		-1.9974		-0.0393		C.ar		1		UNL1		0.1348
21		O		-0.2117		1.1753		0.1274		O.3		1		UNL1		-0.5245
22		N		2.0552		-2.8691		-0.0978		N.pl3		1		UNL1		-0.7615
23		C		7.5814		-1.7363		-0.0196		C.1		1		UNL1		0.2326
24		N		8.7269		-1.5317		-0.0031		N.1		1		UNL1		-0.4765
25		C		-2.7832		-0.1283		-0.1002		C.2		1		UNL1		0.3851
26		C		0.6574		2.0620		-2.4023		C.3		1		UNL1		-0.5422
27		C		1.1096		1.6179		2.6126		C.3		1		UNL1		-0.5392
28		C		-4.0593		-0.9704		0.0276		C.3		1		UNL1		-0.1836
29		O		-2.8736		1.0759		-0.2892		O.2		1		UNL1		-0.4630
30		N		-5.1982		-0.1189		0.2850		N.3		1		UNL1		-0.5755
31		C		-6.4769		-0.6955		-0.1115		C.3		1		UNL1		-0.1211
32		C		-7.6120		0.2777		0.2233		C.3		1		UNL1		-0.1201
33		N		-8.9110		-0.1557		-0.2890		N.3		1		UNL1		-0.3714
34		C		-9.8750		0.9373		-0.2799		C.3		1		UNL1		-0.2936
35		C		-9.4393		-1.3124		0.4240		C.3		1		UNL1		-0.3010
36		H		2.9260		3.5882		-2.0919		H		1		UNL1		0.1586
37		H		3.3078		3.2061		2.1763		H		1		UNL1		0.1586
38		H		-2.2604		-2.8411		-0.1344		H		1		UNL1		0.1694
39		H		5.6067		0.0828		-0.0119		H		1		UNL1		0.1692
40		H		3.1789		-0.3638		-0.0446		H		1		UNL1		0.1976
41		H		3.9798		-4.5962		-0.1048		H		1		UNL1		0.1426
42		H		6.4029		-4.1459		-0.0736		H		1		UNL1		0.1635
43		H		1.8621		-3.8626		-0.1393		H		1		UNL1		0.3548
44		H		0.7972		1.0133		-2.6940		H		1		UNL1		0.1713
45		H		0.9990		2.6872		-3.2317		H		1		UNL1		0.1656
46		H		-0.4169		2.2188		-2.2617		H		1		UNL1		0.1964
47		H		1.6508		2.0463		3.4605		H		1		UNL1		0.1664
48		H		1.2200		0.5277		2.6574		H		1		UNL1		0.1752
49		H		0.0445		1.8431		2.7326		H		1		UNL1		0.1850
50		H		-3.9466		-1.7117		0.8314		H		1		UNL1		0.1588
51		H		-4.1491		-1.5540		-0.9151		H		1		UNL1		0.1391
52		H		-5.0343		0.7747		-0.1763		H		1		UNL1		0.3193
53		H		-6.6062		-1.6362		0.4390		H		1		UNL1		0.1360
54		H		-6.5308		-0.9479		-1.1879		H		1		UNL1		0.1249
55		H		-7.3799		1.2420		-0.2482		H		1		UNL1		0.1324
56		H		-7.6265		0.4561		1.3162		H		1		UNL1		0.1250
57		H		-10.8160		0.6005		-0.7288		H		1		UNL1		0.1476
58		H		-9.4945		1.7730		-0.8772		H		1		UNL1		0.1492
59		H		-10.1002		1.3173		0.7366		H		1		UNL1		0.1187
60		H		-10.3970		-1.6061		-0.0190		H		1		UNL1		0.1491
61		H		-9.6062		-1.1183		1.5028		H		1		UNL1		0.1185
62		H		-8.7590		-2.1643		0.3343		H		1		UNL1		0.1509
@<TRIPOS>BOND
1		45		26		1
2		44		26		1
3		26		46		1
4		26		4		1
5		36		3		1
6		54		31		1
7		3		4		ar
8		3		8		ar
9		4		5		ar
10		51		28		1
11		58		34		1
12		57		34		1
13		29		25		2
14		33		34		1
15		33		32		1
16		33		35		1
17		34		59		1
18		55		32		1
19		52		30		1
20		43		22		1
21		38		11		1
22		31		32		1
23		31		30		1
24		31		53		1
25		41		18		1
26		12		11		ar
27		12		13		ar
28		25		10		1
29		25		28		1
30		22		17		1
31		22		13		1
32		11		10		ar
33		18		17		ar
34		18		19		ar
35		17		16		ar
36		42		19		1
37		19		20		ar
38		13		14		ar
39		16		40		1
40		16		15		ar
41		20		15		ar
42		20		23		1
43		10		9		ar
44		15		39		1
45		23		24		3
46		60		35		1
47		2		1		3
48		14		9		ar
49		1		8		1
50		9		21		1
51		28		30		1
52		28		50		1
53		8		7		ar
54		5		21		1
55		5		6		ar
56		32		56		1
57		62		35		1
58		35		61		1
59		7		6		ar
60		7		37		1
61		6		27		1
62		27		48		1
63		27		49		1
64		27		47		1

