@<TRIPOS>MOLECULE
GSX-2011-BMC-4220-12p
 56 59 0 0 0
SMALL
MULLIKEN_CHARGES
****
Gaussian 16 #p B3LYP/6-31G* opt
@<TRIPOS>ATOM
1		C		-4.6046		-0.9330		-3.0753		C.3		1		UNL1		-0.5682
2		C		-4.6148		-0.3672		-1.6734		C.ar		1		UNL1		0.1542
3		C		-5.7872		0.1724		-1.1480		C.ar		1		UNL1		-0.2120
4		C		-5.8155		0.6946		0.1450		C.ar		1		UNL1		-0.1229
5		S		-7.3414		1.3778		0.7812		S.O2		1		UNL1		1.1678
6		N		-7.3207		2.9832		0.2206		N.3		1		UNL1		-0.8148
7		O		-7.2362		1.3997		2.2436		O.2		1		UNL1		-0.5276
8		O		-8.4551		0.7263		0.0845		O.2		1		UNL1		-0.5421
9		C		-4.6766		0.6755		0.9454		C.ar		1		UNL1		-0.1638
10		C		-3.4925		0.1429		0.4432		C.ar		1		UNL1		-0.1530
11		C		-3.4549		-0.3729		-0.8608		C.ar		1		UNL1		0.2945
12		N		-2.2785		-0.9282		-1.4108		N.am		1		UNL1		-0.7314
13		C		-1.0124		-0.9954		-0.8734		C.2		1		UNL1		0.6036
14		O		-0.6924		-0.6025		0.2344		O.2		1		UNL1		-0.4765
15		C		0.0071		-1.6209		-1.8511		C.3		1		UNL1		-0.1464
16		O		1.2699		-1.8032		-1.2677		O.3		1		UNL1		-0.5095
17		C		1.4395		-2.7816		-0.3232		C.ar		1		UNL1		0.3829
18		C		0.4855		-3.7314		0.0462		C.ar		1		UNL1		-0.1902
19		C		0.7838		-4.7083		1.0001		C.ar		1		UNL1		-0.2021
20		C		2.0417		-4.7181		1.5830		C.ar		1		UNL1		0.3837
21		F		2.3392		-5.6572		2.5038		F		1		UNL1		-0.2958
22		C		3.0094		-3.7774		1.2470		C.ar		1		UNL1		-0.2492
23		C		2.7027		-2.8082		0.2986		C.ar		1		UNL1		0.2908
24		O		3.7134		-1.9559		-0.1016		O.3		1		UNL1		-0.5621
25		C		3.6562		-0.6082		0.1299		C.ar		1		UNL1		0.3916
26		C		2.6210		0.0047		0.8772		C.ar		1		UNL1		-0.1620
27		C		2.6400		1.3590		1.0951		C.ar		1		UNL1		-0.2062
28		C		3.6871		2.1716		0.5884		C.ar		1		UNL1		0.1459
29		C		3.7093		3.5683		0.8109		C.ar		1		UNL1		-0.2172
30		C		4.7343		4.3529		0.3090		C.ar		1		UNL1		0.1329
31		C		4.7418		5.7670		0.5398		C.1		1		UNL1		0.2328
32		N		4.7524		6.9163		0.7222		N.1		1		UNL1		-0.4813
33		C		5.7837		3.7490		-0.4411		C.ar		1		UNL1		-0.1421
34		C		5.7844		2.3956		-0.6706		C.ar		1		UNL1		-0.2041
35		C		4.7442		1.5634		-0.1700		C.ar		1		UNL1		0.1518
36		C		4.6936		0.1586		-0.3809		C.ar		1		UNL1		-0.2411
37		CL		5.9556		-0.6403		-1.2978		Cl		1		UNL1		0.0161
38		H		-5.5909		-0.8351		-3.5355		H		1		UNL1		0.1856
39		H		-4.3501		-2.0023		-3.0905		H		1		UNL1		0.1663
40		H		-3.8921		-0.4102		-3.7288		H		1		UNL1		0.1670
41		H		-6.6937		0.1735		-1.7447		H		1		UNL1		0.1722
42		H		-7.1498		3.6169		0.9994		H		1		UNL1		0.3550
43		H		-8.2188		3.1825		-0.2165		H		1		UNL1		0.3583
44		H		-4.7177		1.0580		1.9594		H		1		UNL1		0.1818
45		H		-2.5989		0.1177		1.0499		H		1		UNL1		0.1964
46		H		-2.3777		-1.2962		-2.3475		H		1		UNL1		0.3429
47		H		0.1730		-0.9264		-2.6819		H		1		UNL1		0.1996
48		H		-0.3848		-2.5583		-2.2745		H		1		UNL1		0.1627
49		H		-0.5036		-3.7217		-0.3969		H		1		UNL1		0.1422
50		H		0.0479		-5.4497		1.2909		H		1		UNL1		0.1552
51		H		3.9912		-3.7964		1.7055		H		1		UNL1		0.1698
52		H		1.8032		-0.5984		1.2516		H		1		UNL1		0.1835
53		H		1.8380		1.8238		1.6614		H		1		UNL1		0.1514
54		H		2.9075		4.0243		1.3842		H		1		UNL1		0.1596
55		H		6.5828		4.3722		-0.8288		H		1		UNL1		0.1581
56		H		6.5879		1.9467		-1.2424		H		1		UNL1		0.1656
@<TRIPOS>BOND
1		40		1		1
2		38		1		1
3		39		1		1
4		1		2		1
5		47		15		1
6		46		12		1
7		48		15		1
8		15		16		1
9		15		13		1
10		41		3		1
11		2		3		ar
12		2		11		ar
13		12		13		1
14		12		11		1
15		37		36		1
16		16		17		1
17		56		34		1
18		3		4		ar
19		13		14		2
20		11		10		ar
21		55		33		1
22		34		33		ar
23		34		35		ar
24		33		30		ar
25		49		18		1
26		36		35		ar
27		36		25		ar
28		17		18		ar
29		17		23		ar
30		43		6		1
31		35		28		ar
32		24		25		1
33		24		23		1
34		18		19		ar
35		8		5		2
36		25		26		ar
37		4		5		1
38		4		9		ar
39		6		5		1
40		6		42		1
41		23		22		ar
42		30		31		1
43		30		29		ar
44		10		9		ar
45		10		45		1
46		31		32		3
47		28		29		ar
48		28		27		ar
49		5		7		2
50		29		54		1
51		26		27		ar
52		26		52		1
53		9		44		1
54		19		50		1
55		19		20		ar
56		27		53		1
57		22		20		ar
58		22		51		1
59		20		21		1

