@<TRIPOS>MOLECULE
GSX-2011-BMC-7093-1j
 44 46 0 0 0
SMALL
MULLIKEN_CHARGES

@<TRIPOS>ATOM
1		C		2.3899		3.8285		0.0789		C.3		1		UNL1		-0.5600
2		C		1.3733		2.7206		0.0437		C.ar		1		UNL1		0.1167
3		C		0.0131		2.9513		0.0975		C.ar		1		UNL1		0.0034
4		N		-0.9358		1.9966		0.0575		N.ar		1		UNL1		-0.5011
5		C		-0.4676		0.7520		-0.0405		C.ar		1		UNL1		0.6997
6		N		-1.3445		-0.3200		-0.0919		N.pl3		1		UNL1		-0.7707
7		C		-2.7334		-0.3980		-0.0644		C.ar		1		UNL1		0.3849
8		C		-3.5908		0.7155		0.0301		C.ar		1		UNL1		-0.1602
9		C		-4.9667		0.5283		0.0498		C.ar		1		UNL1		-0.1545
10		C		-5.5302		-0.7569		-0.0230		C.ar		1		UNL1		0.1288
11		C		-6.9492		-0.9345		-0.0013		C.1		1		UNL1		0.2243
12		N		-8.1044		-1.0811		0.0163		N.1		1		UNL1		-0.4897
13		C		-4.6728		-1.8679		-0.1176		C.ar		1		UNL1		-0.1413
14		C		-3.3002		-1.6883		-0.1377		C.ar		1		UNL1		-0.2071
15		N		0.8219		0.3726		-0.0943		N.ar		1		UNL1		-0.6100
16		C		1.7421		1.3445		-0.0594		C.ar		1		UNL1		0.5365
17		N		3.0540		0.9862		-0.1509		N.pl3		1		UNL1		-0.6767
18		C		3.5423		-0.3909		-0.1627		C.3		1		UNL1		0.0666
19		C		4.8643		-0.4843		-0.9364		C.3		1		UNL1		-0.2892
20		C		5.2748		-1.9620		-1.1530		C.3		1		UNL1		-0.2650
21		C		4.7675		-2.8902		-0.0239		C.3		1		UNL1		-0.2672
22		C		4.7101		-2.1476		1.3177		C.3		1		UNL1		-0.2690
23		C		3.7049		-0.9714		1.2670		C.3		1		UNL1		-0.2663
24		H		3.0630		3.7499		0.9455		H		1		UNL1		0.1567
25		H		1.8961		4.8031		0.1433		H		1		UNL1		0.1700
26		H		3.0195		3.8387		-0.8220		H		1		UNL1		0.1628
27		H		-0.3554		3.9740		0.1764		H		1		UNL1		0.1371
28		H		-0.8506		-1.1998		-0.1652		H		1		UNL1		0.3388
29		H		-3.1624		1.7059		0.0861		H		1		UNL1		0.1894
30		H		-5.6206		1.3918		0.1227		H		1		UNL1		0.1543
31		H		-5.0912		-2.8677		-0.1749		H		1		UNL1		0.1534
32		H		-2.6478		-2.5556		-0.2111		H		1		UNL1		0.1308
33		H		3.7377		1.7091		0.0230		H		1		UNL1		0.3249
34		H		2.7816		-0.9677		-0.6959		H		1		UNL1		0.1670
35		H		4.7738		0.0341		-1.8976		H		1		UNL1		0.1469
36		H		5.6453		0.0425		-0.3676		H		1		UNL1		0.1275
37		H		4.8876		-2.3154		-2.1163		H		1		UNL1		0.1411
38		H		6.3677		-2.0215		-1.2210		H		1		UNL1		0.1390
39		H		5.4101		-3.7752		0.0508		H		1		UNL1		0.1378
40		H		3.7633		-3.2622		-0.2690		H		1		UNL1		0.1365
41		H		5.7142		-1.7701		1.5551		H		1		UNL1		0.1338
42		H		4.4439		-2.8343		2.1295		H		1		UNL1		0.1395
43		H		2.7182		-1.2836		1.6272		H		1		UNL1		0.1530
44		H		4.0400		-0.1686		1.9367		H		1		UNL1		0.1268
@<TRIPOS>BOND
1		37		20		1
2		35		19		1
3		38		20		1
4		20		19		1
5		20		21		1
6		19		36		1
7		19		18		1
8		26		1		1
9		34		18		1
10		40		21		1
11		32		14		1
12		31		13		1
13		28		6		1
14		18		17		1
15		18		23		1
16		17		16		1
17		17		33		1
18		14		13		ar
19		14		7		ar
20		13		10		ar
21		15		16		ar
22		15		5		ar
23		6		7		1
24		6		5		1
25		7		8		ar
26		16		2		ar
27		5		4		ar
28		21		39		1
29		21		22		1
30		10		11		1
31		10		9		ar
32		11		12		3
33		8		9		ar
34		8		29		1
35		2		1		1
36		2		3		ar
37		9		30		1
38		4		3		ar
39		1		25		1
40		1		24		1
41		3		27		1
42		23		22		1
43		23		43		1
44		23		44		1
45		22		41		1
46		22		42		1

