@<TRIPOS>MOLECULE
GSX-2019-EJMC277-11-34b
 51 54 0 0 0
SMALL
MULLIKEN_CHARGES

@<TRIPOS>ATOM
1		C		4.5432		-2.6177		-0.8339		C.ar		1		UNL1		-0.1457
2		C		3.3047		-3.0219		-1.3044		C.ar		1		UNL1		-0.1546
3		C		2.1741		-2.3593		-0.8113		C.ar		1		UNL1		0.3696
4		C		2.2614		-1.3099		0.1421		C.ar		1		UNL1		0.0717
5		C		3.5276		-0.9200		0.6205		C.ar		1		UNL1		-0.1948
6		C		4.6356		-1.5787		0.1165		C.ar		1		UNL1		-0.0779
7		N		0.8458		-2.5452		-1.0944		N.ar		1		UNL1		-0.7213
8		C		0.0609		-1.6772		-0.3871		C.ar		1		UNL1		0.2468
9		C		0.9056		-0.8878		0.4029		C.ar		1		UNL1		-0.2898
10		S		0.5213		0.5034		1.4317		S.O2		1		UNL1		1.1700
11		O		1.6133		0.6467		2.4041		O.2		1		UNL1		-0.5482
12		O		-0.8714		0.3587		1.9209		O.2		1		UNL1		-0.5962
13		C		0.5596		1.9353		0.3419		C.ar		1		UNL1		-0.1278
14		C		1.7060		2.7226		0.3172		C.ar		1		UNL1		-0.1946
15		C		1.7565		3.8386		-0.5312		C.ar		1		UNL1		0.1788
16		C		0.6442		4.1166		-1.3295		C.ar		1		UNL1		-0.2199
17		C		-0.5184		3.3290		-1.3048		C.ar		1		UNL1		0.1801
18		C		-0.5534		2.2237		-0.4536		C.ar		1		UNL1		-0.2040
19		C		-1.7037		3.6812		-2.1730		C.3		1		UNL1		-0.5327
20		C		2.9858		4.7166		-0.5619		C.3		1		UNL1		-0.5305
21		C		-1.4030		-1.8507		-0.6988		C.2		1		UNL1		0.6057
22		O		-1.6916		-2.5991		-1.6378		O.2		1		UNL1		-0.5506
23		N		-2.2837		-1.1830		0.0839		N.am		1		UNL1		-0.7993
24		C		-3.6934		-1.1427		-0.0147		C.ar		1		UNL1		0.3552
25		CL		6.2373		-1.1152		0.6852		Cl		1		UNL1		-0.0267
26		C		-4.3449		-0.3350		0.9290		C.ar		1		UNL1		-0.2784
27		C		-5.7396		-0.2127		0.9253		C.ar		1		UNL1		0.3160
28		C		-6.4784		-0.9152		-0.0431		C.ar		1		UNL1		-0.1689
29		C		-5.8184		-1.7126		-0.9726		C.ar		1		UNL1		-0.1511
30		C		-4.4290		-1.8444		-0.9803		C.ar		1		UNL1		-0.1709
31		N		-6.3782		0.6410		1.8300		N.pl3		1		UNL1		-0.7912
32		H		5.4488		-3.0983		-1.1867		H		1		UNL1		0.1581
33		H		3.2177		-3.8246		-2.0304		H		1		UNL1		0.1478
34		H		3.6265		-0.1464		1.3704		H		1		UNL1		0.1947
35		H		0.4115		-3.1877		-1.7476		H		1		UNL1		0.3602
36		H		2.5417		2.4785		0.9651		H		1		UNL1		0.1730
37		H		0.6775		4.9797		-1.9920		H		1		UNL1		0.1289
38		H		-1.4424		1.6034		-0.4008		H		1		UNL1		0.1611
39		H		-2.5024		2.9397		-2.0796		H		1		UNL1		0.1707
40		H		-1.4186		3.7384		-3.2303		H		1		UNL1		0.1677
41		H		-2.1203		4.6579		-1.8975		H		1		UNL1		0.1707
42		H		2.9125		5.4792		-1.3431		H		1		UNL1		0.1595
43		H		3.8915		4.1278		-0.7481		H		1		UNL1		0.1719
44		H		3.1278		5.2319		0.3962		H		1		UNL1		0.1743
45		H		-1.8830		-0.6600		0.8660		H		1		UNL1		0.4358
46		H		-3.7576		0.2067		1.6675		H		1		UNL1		0.1447
47		H		-7.5620		-0.8269		-0.0631		H		1		UNL1		0.1157
48		H		-6.4009		-2.2531		-1.7143		H		1		UNL1		0.1296
49		H		-3.9240		-2.4689		-1.7019		H		1		UNL1		0.1738
50		H		-7.3432		0.4039		2.0246		H		1		UNL1		0.3205
51		H		-5.8641		0.8165		2.6847		H		1		UNL1		0.3227
@<TRIPOS>BOND
1		40		19		1
2		19		39		1
3		19		41		1
4		19		17		1
5		33		2		1
6		37		16		1
7		35		7		1
8		48		29		1
9		49		30		1
10		22		21		2
11		42		20		1
12		16		17		ar
13		16		15		ar
14		17		18		ar
15		2		1		ar
16		2		3		ar
17		32		1		1
18		7		3		ar
19		7		8		ar
20		30		29		ar
21		30		24		ar
22		29		28		ar
23		1		6		ar
24		3		4		ar
25		43		20		1
26		21		8		1
27		21		23		1
28		20		15		1
29		20		44		1
30		15		14		ar
31		18		38		1
32		18		13		ar
33		8		9		ar
34		47		28		1
35		28		27		ar
36		24		23		1
37		24		26		ar
38		23		45		1
39		6		5		ar
40		6		25		1
41		4		9		ar
42		4		5		ar
43		14		13		ar
44		14		36		1
45		13		10		1
46		9		10		1
47		5		34		1
48		27		26		ar
49		27		31		1
50		26		46		1
51		10		12		2
52		10		11		2
53		31		50		1
54		31		51		1

