@<TRIPOS>MOLECULE
GSX-2011-BMC-7093-1q
 43 45 0 0 0
SMALL
MULLIKEN_CHARGES

@<TRIPOS>ATOM
1		C		3.2478		2.9223		-0.4554		C.3		1		UNL1		-0.5460
2		C		1.8172		2.5532		-0.1691		C.ar		1		UNL1		0.1254
3		C		0.9476		3.4808		0.4239		C.ar		1		UNL1		0.0316
4		N		-0.3417		3.2670		0.6610		N.ar		1		UNL1		-0.4801
5		C		-0.8048		2.0604		0.2770		C.ar		1		UNL1		0.6744
6		N		-2.1535		1.8859		0.5110		N.pl3		1		UNL1		-0.7585
7		C		-3.0214		0.8217		0.2679		C.ar		1		UNL1		0.3814
8		C		-4.3691		1.0070		0.6400		C.ar		1		UNL1		-0.2054
9		C		-5.3078		0.0090		0.4393		C.ar		1		UNL1		-0.1409
10		C		-4.9263		-1.2128		-0.1433		C.ar		1		UNL1		0.1309
11		C		-5.8904		-2.2488		-0.3537		C.1		1		UNL1		0.2268
12		N		-6.6760		-3.0911		-0.5238		N.1		1		UNL1		-0.4862
13		C		-3.5841		-1.3975		-0.5140		C.ar		1		UNL1		-0.1549
14		C		-2.6371		-0.4005		-0.3155		C.ar		1		UNL1		-0.1663
15		N		-0.0824		1.0802		-0.2739		N.ar		1		UNL1		-0.4859
16		C		1.2183		1.3199		-0.4880		C.ar		1		UNL1		0.0441
17		S		2.0892		-0.0226		-1.3092		S.3		1		UNL1		0.1268
18		C		3.4243		-0.4867		-0.0977		C.3		1		UNL1		-0.2544
19		C		2.8601		-1.0882		1.2123		C.3		1		UNL1		-0.2660
20		C		2.7096		-2.6104		1.1131		C.3		1		UNL1		-0.2710
21		C		4.0837		-3.2955		0.9158		C.3		1		UNL1		-0.2608
22		C		5.0796		-2.3897		0.1530		C.3		1		UNL1		-0.2720
23		C		4.3480		-1.4800		-0.8450		C.3		1		UNL1		-0.2805
24		H		3.9281		2.6056		0.3459		H		1		UNL1		0.1696
25		H		3.5939		2.4589		-1.3844		H		1		UNL1		0.1890
26		H		3.3512		4.0083		-0.5519		H		1		UNL1		0.1630
27		H		1.3255		4.4636		0.7073		H		1		UNL1		0.1504
28		H		-2.5644		2.7079		0.9354		H		1		UNL1		0.3472
29		H		-4.6759		1.9479		1.0911		H		1		UNL1		0.1360
30		H		-6.3409		0.1677		0.7312		H		1		UNL1		0.1568
31		H		-3.2808		-2.3371		-0.9650		H		1		UNL1		0.1584
32		H		-1.6073		-0.5523		-0.6048		H		1		UNL1		0.2017
33		H		3.9927		0.4176		0.1332		H		1		UNL1		0.1670
34		H		1.9072		-0.6152		1.4703		H		1		UNL1		0.1578
35		H		3.5561		-0.8452		2.0283		H		1		UNL1		0.1377
36		H		2.2132		-3.0025		2.0079		H		1		UNL1		0.1400
37		H		2.0463		-2.8412		0.2698		H		1		UNL1		0.1535
38		H		3.9449		-4.2366		0.3694		H		1		UNL1		0.1390
39		H		4.5129		-3.5654		1.8886		H		1		UNL1		0.1361
40		H		5.6409		-1.7649		0.8608		H		1		UNL1		0.1346
41		H		5.8247		-2.9986		-0.3719		H		1		UNL1		0.1425
42		H		3.7550		-2.1100		-1.5226		H		1		UNL1		0.1586
43		H		5.0530		-0.9264		-1.4745		H		1		UNL1		0.1491
@<TRIPOS>BOND
1		42		23		1
2		43		23		1
3		25		1		1
4		17		16		1
5		17		18		1
6		31		13		1
7		23		18		1
8		23		22		1
9		32		14		1
10		26		1		1
11		12		11		3
12		13		14		ar
13		13		10		ar
14		16		15		ar
15		16		2		ar
16		1		2		1
17		1		24		1
18		41		22		1
19		11		10		1
20		14		7		ar
21		15		5		ar
22		2		3		ar
23		10		9		ar
24		18		33		1
25		18		19		1
26		22		40		1
27		22		21		1
28		7		6		1
29		7		8		ar
30		37		20		1
31		5		6		1
32		5		4		ar
33		38		21		1
34		3		4		ar
35		3		27		1
36		9		8		ar
37		9		30		1
38		6		28		1
39		8		29		1
40		21		20		1
41		21		39		1
42		20		19		1
43		20		36		1
44		19		34		1
45		19		35		1

