@<TRIPOS>MOLECULE
GSX-2011-BMC-5117-10t
 40 42 0 0 0
SMALL
MULLIKEN_CHARGES
****
Gaussian 16 #p B3LYP/6-31G* opt
@<TRIPOS>ATOM
1		C		-1.9542		2.7769		1.5061		C.3		1		UNL1		-0.5734
2		C		-0.8253		2.0155		0.8585		C.ar		1		UNL1		0.1273
3		C		0.4257		1.9441		1.4690		C.ar		1		UNL1		0.0190
4		N		1.4832		1.2977		0.9679		N.ar		1		UNL1		-0.4727
5		C		1.2754		0.6862		-0.2025		C.ar		1		UNL1		0.6913
6		N		2.2888		-0.0161		-0.8213		N.pl3		1		UNL1		-0.7666
7		C		3.6164		-0.2589		-0.4687		C.ar		1		UNL1		0.3828
8		C		4.3777		-1.0361		-1.3659		C.ar		1		UNL1		-0.2058
9		C		5.7046		-1.3324		-1.1032		C.ar		1		UNL1		-0.1403
10		C		6.3153		-0.8583		0.0715		C.ar		1		UNL1		0.1312
11		C		7.6858		-1.1608		0.3503		C.1		1		UNL1		0.2274
12		N		8.8008		-1.4077		0.5764		N.1		1		UNL1		-0.4845
13		C		5.5574		-0.0838		0.9650		C.ar		1		UNL1		-0.1531
14		C		4.2258		0.2172		0.7072		C.ar		1		UNL1		-0.1608
15		N		0.1171		0.6740		-0.8936		N.ar		1		UNL1		-0.5543
16		C		-0.9193		1.3333		-0.3741		C.ar		1		UNL1		0.2740
17		C		-2.1926		1.2745		-1.2199		C.3		1		UNL1		0.0152
18		O		-2.7395		2.5698		-1.4536		O.3		1		UNL1		-0.6198
19		C		-3.2343		0.2900		-0.6828		C.ar		1		UNL1		0.0897
20		C		-2.8708		-0.8491		0.0475		C.ar		1		UNL1		-0.1658
21		C		-3.8333		-1.7537		0.4944		C.ar		1		UNL1		-0.1341
22		C		-5.1767		-1.5176		0.2062		C.ar		1		UNL1		-0.0633
23		CL		-6.3966		-2.6489		0.7732		Cl		1		UNL1		-0.0175
24		C		-5.5646		-0.3983		-0.5275		C.ar		1		UNL1		-0.1292
25		C		-4.5902		0.4960		-0.9701		C.ar		1		UNL1		-0.1876
26		H		-1.7078		3.0154		2.5458		H		1		UNL1		0.1694
27		H		-2.1487		3.7275		0.9938		H		1		UNL1		0.1780
28		H		-2.8856		2.1982		1.5200		H		1		UNL1		0.1702
29		H		0.5878		2.4371		2.4276		H		1		UNL1		0.1491
30		H		1.9816		-0.4149		-1.6994		H		1		UNL1		0.3469
31		H		3.9162		-1.4083		-2.2777		H		1		UNL1		0.1374
32		H		6.2767		-1.9318		-1.8039		H		1		UNL1		0.1584
33		H		6.0212		0.2867		1.8738		H		1		UNL1		0.1582
34		H		3.6501		0.8143		1.3995		H		1		UNL1		0.1884
35		H		-1.8664		0.9315		-2.2075		H		1		UNL1		0.1899
36		H		-3.2647		2.8197		-0.6776		H		1		UNL1		0.3978
37		H		-1.8257		-1.0435		0.2680		H		1		UNL1		0.1522
38		H		-3.5445		-2.6317		1.0622		H		1		UNL1		0.1606
39		H		-6.6125		-0.2309		-0.7533		H		1		UNL1		0.1600
40		H		-4.8858		1.3599		-1.5572		H		1		UNL1		0.1546
@<TRIPOS>BOND
1		31		8		1
2		35		17		1
3		32		9		1
4		30		6		1
5		40		25		1
6		18		17		1
7		18		36		1
8		8		9		ar
9		8		7		ar
10		17		19		1
11		17		16		1
12		9		10		ar
13		25		19		ar
14		25		24		ar
15		15		16		ar
16		15		5		ar
17		6		7		1
18		6		5		1
19		39		24		1
20		19		20		ar
21		24		22		ar
22		7		14		ar
23		16		2		ar
24		5		4		ar
25		20		37		1
26		20		21		ar
27		10		11		1
28		10		13		ar
29		22		21		ar
30		22		23		1
31		11		12		3
32		21		38		1
33		14		13		ar
34		14		34		1
35		2		3		ar
36		2		1		1
37		13		33		1
38		4		3		ar
39		27		1		1
40		3		29		1
41		1		28		1
42		1		26		1

