@<TRIPOS>MOLECULE
GSX-2011-BMC-4220-12h
 55 58 0 0 0
SMALL
MULLIKEN_CHARGES
****
Gaussian 16 #p B3LYP/6-31G* opt
@<TRIPOS>ATOM
1		C		2.2799		-1.3754		-0.2944		C.3		1		UNL1		-0.5675
2		C		3.7498		-1.0243		-0.3110		C.ar		1		UNL1		0.1564
3		C		4.6987		-1.9584		0.1025		C.ar		1		UNL1		-0.2289
4		C		6.0588		-1.6447		0.1068		C.ar		1		UNL1		-0.1427
5		S		7.2508		-2.8866		0.6169		S.O2		1		UNL1		1.1620
6		N		7.7571		-3.6951		-0.7758		N.3		1		UNL1		-0.7851
7		O		8.4346		-2.1836		1.1080		O.2		1		UNL1		-0.5259
8		O		6.5305		-3.8864		1.4048		O.2		1		UNL1		-0.5289
9		C		6.4954		-0.3817		-0.2916		C.ar		1		UNL1		-0.1725
10		C		5.5687		0.5661		-0.7141		C.ar		1		UNL1		-0.1553
11		C		4.2001		0.2511		-0.7302		C.ar		1		UNL1		0.2972
12		N		3.2292		1.1789		-1.1489		N.am		1		UNL1		-0.7267
13		C		3.3913		2.4729		-1.5741		C.2		1		UNL1		0.5821
14		O		4.4485		3.0742		-1.6889		O.2		1		UNL1		-0.4943
15		C		2.0718		3.1442		-1.9857		C.3		1		UNL1		-0.1442
16		O		0.9089		2.5314		-1.4443		O.3		1		UNL1		-0.5357
17		C		0.4990		2.9135		-0.1839		C.ar		1		UNL1		0.3192
18		C		1.2700		3.6415		0.7215		C.ar		1		UNL1		-0.1952
19		C		0.7629		3.9806		1.9810		C.ar		1		UNL1		-0.2117
20		C		-0.5201		3.5768		2.3094		C.ar		1		UNL1		0.3901
21		F		-1.0294		3.8996		3.5161		F		1		UNL1		-0.2965
22		C		-1.3157		2.8456		1.4315		C.ar		1		UNL1		-0.2677
23		C		-0.8011		2.5039		0.1830		C.ar		1		UNL1		0.3208
24		O		-1.5123		1.8229		-0.7739		O.3		1		UNL1		-0.5714
25		C		-2.5730		1.0101		-0.4089		C.ar		1		UNL1		0.3409
26		C		-2.3925		-0.0409		0.5261		C.ar		1		UNL1		-0.1620
27		C		-3.4364		-0.8919		0.8012		C.ar		1		UNL1		-0.1977
28		C		-4.6955		-0.7422		0.1577		C.ar		1		UNL1		0.1424
29		C		-5.7840		-1.6130		0.4269		C.ar		1		UNL1		-0.2194
30		C		-6.9813		-1.4313		-0.2222		C.ar		1		UNL1		0.0785
31		BR		-8.4475		-2.6040		0.1394		Br		1		UNL1		-0.1243
32		C		-7.1636		-0.3901		-1.1617		C.ar		1		UNL1		-0.1514
33		C		-6.1199		0.4634		-1.4362		C.ar		1		UNL1		-0.1903
34		C		-4.8621		0.3176		-0.7918		C.ar		1		UNL1		0.1388
35		C		-3.7739		1.1901		-1.0538		C.ar		1		UNL1		-0.2491
36		H		2.1323		-2.3936		0.0745		H		1		UNL1		0.1786
37		H		1.8290		-1.3233		-1.2949		H		1		UNL1		0.1716
38		H		1.7054		-0.7061		0.3607		H		1		UNL1		0.1719
39		H		4.3775		-2.9355		0.4501		H		1		UNL1		0.1727
40		H		8.2534		-3.0832		-1.4191		H		1		UNL1		0.3477
41		H		6.9983		-4.1985		-1.2287		H		1		UNL1		0.3460
42		H		7.5507		-0.1322		-0.2505		H		1		UNL1		0.1778
43		H		5.8866		1.5519		-1.0234		H		1		UNL1		0.1985
44		H		2.2630		0.8766		-1.1202		H		1		UNL1		0.3660
45		H		1.9716		3.0548		-3.0726		H		1		UNL1		0.1986
46		H		2.1326		4.2078		-1.7362		H		1		UNL1		0.1870
47		H		2.2791		3.9441		0.4651		H		1		UNL1		0.1673
48		H		1.3566		4.5422		2.6932		H		1		UNL1		0.1567
49		H		-2.3197		2.5596		1.7210		H		1		UNL1		0.1712
50		H		-1.4296		-0.1642		1.0114		H		1		UNL1		0.1492
51		H		-3.3041		-1.7009		1.5147		H		1		UNL1		0.1464
52		H		-5.6626		-2.4178		1.1447		H		1		UNL1		0.1564
53		H		-8.1222		-0.2754		-1.6554		H		1		UNL1		0.1582
54		H		-6.2529		1.2659		-2.1572		H		1		UNL1		0.1454
55		H		-3.8787		1.9986		-1.7709		H		1		UNL1		0.1489
@<TRIPOS>BOND
1		45		15		1
2		54		33		1
3		15		46		1
4		15		13		1
5		15		16		1
6		55		35		1
7		14		13		2
8		53		32		1
9		13		12		1
10		16		17		1
11		33		32		ar
12		33		34		ar
13		40		6		1
14		37		1		1
15		41		6		1
16		32		30		ar
17		12		44		1
18		12		11		1
19		35		34		ar
20		35		25		ar
21		43		10		1
22		34		28		ar
23		6		5		1
24		24		25		1
25		24		23		1
26		11		10		ar
27		11		2		ar
28		10		9		ar
29		25		26		ar
30		2		1		1
31		2		3		ar
32		1		36		1
33		1		38		1
34		9		42		1
35		9		4		ar
36		30		31		1
37		30		29		ar
38		17		23		ar
39		17		18		ar
40		3		4		ar
41		3		39		1
42		4		5		1
43		28		29		ar
44		28		27		ar
45		23		22		ar
46		29		52		1
47		47		18		1
48		26		27		ar
49		26		50		1
50		5		7		2
51		5		8		2
52		18		19		ar
53		27		51		1
54		22		49		1
55		22		20		ar
56		19		20		ar
57		19		48		1
58		20		21		1

