@<TRIPOS>MOLECULE
GSX-2011-BMC-7093-1l
 35 37 0 0 0
SMALL
MULLIKEN_CHARGES

@<TRIPOS>ATOM
1		C		3.8268		2.8087		0.0665		C.3		1		UNL1		-0.5593
2		C		2.6221		1.9095		0.0108		C.ar		1		UNL1		0.1150
3		C		1.3271		2.3865		0.0822		C.ar		1		UNL1		0.0047
4		N		0.2202		1.6220		0.0475		N.ar		1		UNL1		-0.4976
5		C		0.4499		0.3132		-0.0679		C.ar		1		UNL1		0.6980
6		N		-0.6080		-0.5797		-0.1139		N.pl3		1		UNL1		-0.7706
7		C		-1.9875		-0.4037		-0.0639		C.ar		1		UNL1		0.3847
8		C		-2.7806		-1.5687		-0.1356		C.ar		1		UNL1		-0.2068
9		C		-4.1624		-1.4956		-0.0940		C.ar		1		UNL1		-0.1413
10		C		-4.8016		-0.2479		0.0211		C.ar		1		UNL1		0.1290
11		C		-6.2288		-0.1645		0.0644		C.1		1		UNL1		0.2246
12		N		-7.3909		-0.0981		0.0994		N.1		1		UNL1		-0.4894
13		C		-4.0127		0.9126		0.0926		C.ar		1		UNL1		-0.1544
14		C		-2.6261		0.8464		0.0517		C.ar		1		UNL1		-0.1605
15		N		1.6477		-0.2947		-0.1550		N.ar		1		UNL1		-0.5920
16		C		2.7258		0.4923		-0.1101		C.ar		1		UNL1		0.5165
17		N		3.9552		-0.1094		-0.1666		N.pl3		1		UNL1		-0.6656
18		C		4.1299		-1.5077		-0.4433		C.3		1		UNL1		0.0632
19		C		5.3903		-2.1563		0.0661		C.3		1		UNL1		-0.3437
20		C		4.0596		-2.4937		0.6934		C.3		1		UNL1		-0.2886
21		H		4.4318		2.7535		-0.8506		H		1		UNL1		0.1571
22		H		3.5228		3.8532		0.1872		H		1		UNL1		0.1705
23		H		4.4877		2.5589		0.9080		H		1		UNL1		0.1646
24		H		1.1536		3.4584		0.1766		H		1		UNL1		0.1382
25		H		-0.2830		-1.5341		-0.1982		H		1		UNL1		0.3415
26		H		-2.2980		-2.5394		-0.2250		H		1		UNL1		0.1318
27		H		-4.7568		-2.4020		-0.1502		H		1		UNL1		0.1538
28		H		-4.4973		1.8800		0.1818		H		1		UNL1		0.1545
29		H		-2.0241		1.7419		0.1081		H		1		UNL1		0.1891
30		H		4.7416		0.4934		-0.3628		H		1		UNL1		0.3324
31		H		3.7421		-1.8409		-1.4053		H		1		UNL1		0.1587
32		H		5.8753		-2.8917		-0.5691		H		1		UNL1		0.1614
33		H		6.0755		-1.5409		0.6436		H		1		UNL1		0.1567
34		H		3.6173		-3.4650		0.4922		H		1		UNL1		0.1572
35		H		3.8506		-2.0928		1.6800		H		1		UNL1		0.1665
@<TRIPOS>BOND
1		31		18		1
2		21		1		1
3		32		19		1
4		18		17		1
5		18		19		1
6		18		20		1
7		30		17		1
8		26		8		1
9		25		6		1
10		17		16		1
11		15		16		ar
12		15		5		ar
13		27		9		1
14		8		9		ar
15		8		7		ar
16		6		5		1
17		6		7		1
18		16		2		ar
19		9		10		ar
20		5		4		ar
21		7		14		ar
22		2		1		1
23		2		3		ar
24		10		11		1
25		10		13		ar
26		4		3		ar
27		14		13		ar
28		14		29		1
29		11		12		3
30		19		33		1
31		19		20		1
32		1		22		1
33		1		23		1
34		3		24		1
35		13		28		1
36		34		20		1
37		20		35		1

