@<TRIPOS>MOLECULE
GSX-2019-EJMC277-5-15b5
 64 66 0 0 0
SMALL
MULLIKEN_CHARGES
****
Gaussian 16 #p B3LYP/6-31G* opt
@<TRIPOS>ATOM
1		C		-3.5558		4.7544		-0.2550		C.3		1		UNL1		-0.5342
2		C		-1.9540		3.1450		0.8669		C.ar		1		UNL1		-0.2800
3		C		-0.9314		2.1894		0.8479		C.ar		1		UNL1		0.1892
4		C		-0.4561		1.7889		-0.4033		C.ar		1		UNL1		0.1993
5		C		-0.9353		2.3122		-1.6080		C.ar		1		UNL1		0.1921
6		C		-1.9559		3.2652		-1.5325		C.ar		1		UNL1		-0.2741
7		C		-2.4790		3.6948		-0.3077		C.ar		1		UNL1		0.2106
8		C		0.4332		-0.4184		-0.5227		C.ar		1		UNL1		0.5509
9		C		1.5376		-1.2763		-0.7790		C.ar		1		UNL1		0.0056
10		C		1.2137		-2.6410		-0.7238		C.ar		1		UNL1		0.0136
11		N		-0.0009		-3.1290		-0.4931		N.ar		1		UNL1		-0.5015
12		C		-0.9637		-2.2015		-0.3063		C.ar		1		UNL1		0.6986
13		N		-0.7955		-0.8742		-0.3015		N.ar		1		UNL1		-0.5523
14		C		-4.9887		-0.3030		0.4015		C.ar		1		UNL1		-0.1592
15		C		-3.7028		-0.7723		0.1629		C.ar		1		UNL1		-0.1640
16		C		-3.4613		-2.1577		0.1336		C.ar		1		UNL1		0.3756
17		C		-4.5349		-3.0459		0.3449		C.ar		1		UNL1		-0.2027
18		C		-5.8146		-2.5715		0.5812		C.ar		1		UNL1		-0.1407
19		C		-6.0589		-1.1872		0.6135		C.ar		1		UNL1		0.1337
20		O		0.6390		0.9040		-0.4735		O.3		1		UNL1		-0.5289
21		N		-2.2095		-2.7369		-0.0986		N.pl3		1		UNL1		-0.7625
22		C		-7.3777		-0.6883		0.8583		C.1		1		UNL1		0.2293
23		N		-8.4503		-0.2823		1.0579		N.1		1		UNL1		-0.4825
24		C		2.8997		-0.8038		-1.1387		C.2		1		UNL1		0.4160
25		C		-0.3691		1.6098		2.1215		C.3		1		UNL1		-0.5431
26		C		-0.3674		1.8543		-2.9287		C.3		1		UNL1		-0.5431
27		C		4.0205		-1.8535		-1.2861		C.3		1		UNL1		-0.2228
28		O		3.1408		0.3697		-1.3904		O.2		1		UNL1		-0.4886
29		N		5.3423		-1.2824		-1.4673		N.3		1		UNL1		-0.5428
30		C		6.1088		-1.0141		-0.2522		C.3		1		UNL1		-0.1750
31		C		5.5379		0.0007		0.7497		C.3		1		UNL1		0.3641
32		O		6.5059		0.3158		1.7435		O.3		1		UNL1		-0.4744
33		O		4.4403		-0.5951		1.3813		O.3		1		UNL1		-0.4765
34		C		7.3141		1.4381		1.4444		C.3		1		UNL1		-0.2066
35		C		3.6871		0.3008		2.1905		C.3		1		UNL1		-0.2180
36		H		-4.1488		4.6789		0.6624		H		1		UNL1		0.1590
37		H		-4.2394		4.6749		-1.1072		H		1		UNL1		0.1606
38		H		-3.1226		5.7631		-0.2805		H		1		UNL1		0.1689
39		H		-2.3432		3.4713		1.8292		H		1		UNL1		0.1219
40		H		-2.3460		3.6857		-2.4572		H		1		UNL1		0.1220
41		H		1.9848		-3.3886		-0.8902		H		1		UNL1		0.1672
42		H		-5.1662		0.7675		0.4230		H		1		UNL1		0.1622
43		H		-2.8907		-0.0791		0.0000		H		1		UNL1		0.2098
44		H		-4.3568		-4.1185		0.3235		H		1		UNL1		0.1406
45		H		-6.6314		-3.2674		0.7426		H		1		UNL1		0.1604
46		H		-2.1830		-3.7492		-0.1155		H		1		UNL1		0.3524
47		H		-0.6152		0.5451		2.2149		H		1		UNL1		0.1709
48		H		-0.7753		2.1270		2.9955		H		1		UNL1		0.1583
49		H		0.7230		1.6937		2.1507		H		1		UNL1		0.1722
50		H		-0.6838		2.5178		-3.7387		H		1		UNL1		0.1568
51		H		-0.7081		0.8405		-3.1782		H		1		UNL1		0.1636
52		H		0.7267		1.8276		-2.9013		H		1		UNL1		0.1919
53		H		3.7697		-2.4710		-2.1648		H		1		UNL1		0.1590
54		H		4.0279		-2.5215		-0.4201		H		1		UNL1		0.1749
55		H		5.2416		-0.4222		-2.0041		H		1		UNL1		0.3083
56		H		7.0988		-0.6594		-0.5623		H		1		UNL1		0.1447
57		H		6.2632		-1.9539		0.2912		H		1		UNL1		0.1596
58		H		5.2261		0.9280		0.2362		H		1		UNL1		0.1129
59		H		7.9508		1.6098		2.3162		H		1		UNL1		0.1623
60		H		6.7084		2.3391		1.2600		H		1		UNL1		0.1364
61		H		7.9597		1.2707		0.5689		H		1		UNL1		0.1359
62		H		2.8931		-0.2891		2.6548		H		1		UNL1		0.1534
63		H		3.2382		1.0946		1.5758		H		1		UNL1		0.1515
64		H		4.3121		0.7472		2.9715		H		1		UNL1		0.1572
@<TRIPOS>BOND
1		50		26		1
2		51		26		1
3		26		52		1
4		26		5		1
5		40		6		1
6		53		27		1
7		55		29		1
8		5		6		ar
9		5		4		ar
10		6		7		ar
11		29		27		1
12		29		30		1
13		28		24		2
14		27		24		1
15		27		54		1
16		24		9		1
17		37		1		1
18		41		10		1
19		9		10		ar
20		9		8		ar
21		10		11		ar
22		56		30		1
23		8		20		1
24		8		13		ar
25		11		12		ar
26		20		4		1
27		4		3		ar
28		7		1		1
29		7		2		ar
30		12		13		ar
31		12		21		1
32		38		1		1
33		1		36		1
34		30		57		1
35		30		31		1
36		46		21		1
37		21		16		1
38		43		15		1
39		16		15		ar
40		16		17		ar
41		15		14		ar
42		58		31		1
43		44		17		1
44		17		18		ar
45		14		42		1
46		14		19		ar
47		61		34		1
48		18		19		ar
49		18		45		1
50		19		22		1
51		31		33		1
52		31		32		1
53		3		2		ar
54		3		25		1
55		22		23		3
56		2		39		1
57		60		34		1
58		33		35		1
59		34		32		1
60		34		59		1
61		63		35		1
62		25		49		1
63		25		47		1
64		25		48		1
65		35		62		1
66		35		64		1

