@<TRIPOS>MOLECULE
GSX-2011-BMC-7093-1m
 44 46 0 0 0
SMALL
MULLIKEN_CHARGES

@<TRIPOS>ATOM
1		C		-0.4600		3.1456		-0.1565		C.3		1		UNL1		-0.5134
2		C		-0.4990		1.6413		-0.0976		C.ar		1		UNL1		0.3354
3		C		-1.6985		0.9468		-0.0776		C.ar		1		UNL1		-0.2479
4		C		-1.6263		-0.4667		-0.0188		C.ar		1		UNL1		0.5655
5		N		-2.7031		-1.3006		0.0097		N.pl3		1		UNL1		-0.6699
6		C		-4.1329		-0.9868		0.0503		C.3		1		UNL1		0.0531
7		C		-4.5508		-0.2141		1.3338		C.3		1		UNL1		-0.2758
8		C		-5.8539		0.5904		1.1332		C.3		1		UNL1		-0.2694
9		C		-6.8187		-0.1478		0.1959		C.3		1		UNL1		-0.2671
10		C		-6.2172		-0.3005		-1.2251		C.3		1		UNL1		-0.2703
11		C		-4.6696		-0.3025		-1.2220		C.3		1		UNL1		-0.2737
12		N		-0.4344		-1.0905		0.0109		N.ar		1		UNL1		-0.6089
13		C		0.6564		-0.3101		-0.0174		C.ar		1		UNL1		0.7050
14		N		1.8359		-1.0377		0.0124		N.pl3		1		UNL1		-0.7739
15		C		3.1751		-0.6599		0.0106		C.ar		1		UNL1		0.3846
16		C		3.6269		0.6738		-0.0245		C.ar		1		UNL1		-0.1599
17		C		4.9892		0.9428		-0.0207		C.ar		1		UNL1		-0.1548
18		C		5.9382		-0.0928		0.0174		C.ar		1		UNL1		0.1289
19		C		7.3383		0.1993		0.0213		C.1		1		UNL1		0.2242
20		N		8.4786		0.4356		0.0248		N.1		1		UNL1		-0.4899
21		C		5.4861		-1.4242		0.0517		C.ar		1		UNL1		-0.1413
22		C		4.1292		-1.6992		0.0483		C.ar		1		UNL1		-0.2070
23		N		0.7005		1.0239		-0.0675		N.ar		1		UNL1		-0.5565
24		H		0.0858		3.4733		-1.0485		H		1		UNL1		0.1759
25		H		0.0786		3.5424		0.7115		H		1		UNL1		0.1757
26		H		-1.4633		3.5803		-0.1777		H		1		UNL1		0.1512
27		H		-2.6410		1.4750		-0.1096		H		1		UNL1		0.1345
28		H		-2.4357		-2.2743		0.0579		H		1		UNL1		0.3307
29		H		-4.6109		-1.9729		0.0875		H		1		UNL1		0.1373
30		H		-4.6753		-0.9379		2.1486		H		1		UNL1		0.1397
31		H		-3.7425		0.4561		1.6431		H		1		UNL1		0.1534
32		H		-5.6230		1.5762		0.7064		H		1		UNL1		0.1350
33		H		-6.3250		0.7820		2.1044		H		1		UNL1		0.1406
34		H		-7.7814		0.3735		0.1432		H		1		UNL1		0.1400
35		H		-7.0331		-1.1383		0.6209		H		1		UNL1		0.1341
36		H		-6.5668		0.5153		-1.8690		H		1		UNL1		0.1411
37		H		-6.5870		-1.2280		-1.6797		H		1		UNL1		0.1385
38		H		-4.2833		-0.8208		-2.1065		H		1		UNL1		0.1459
39		H		-4.2962		0.7257		-1.2800		H		1		UNL1		0.1453
40		H		1.6552		-2.0326		0.0473		H		1		UNL1		0.3396
41		H		2.9009		1.4733		-0.0541		H		1		UNL1		0.1859
42		H		5.3287		1.9737		-0.0474		H		1		UNL1		0.1534
43		H		6.2052		-2.2365		0.0810		H		1		UNL1		0.1535
44		H		3.7925		-2.7332		0.0751		H		1		UNL1		0.1317
@<TRIPOS>BOND
1		38		11		1
2		36		10		1
3		37		10		1
4		39		11		1
5		10		11		1
6		10		9		1
7		11		6		1
8		24		1		1
9		26		1		1
10		1		2		1
11		1		25		1
12		27		3		1
13		2		3		ar
14		2		23		ar
15		3		4		ar
16		23		13		ar
17		41		16		1
18		42		17		1
19		16		17		ar
20		16		15		ar
21		17		18		ar
22		4		5		1
23		4		12		ar
24		13		12		ar
25		13		14		1
26		5		6		1
27		5		28		1
28		15		14		1
29		15		22		ar
30		14		40		1
31		18		19		1
32		18		21		ar
33		19		20		3
34		22		21		ar
35		22		44		1
36		6		29		1
37		6		7		1
38		21		43		1
39		34		9		1
40		9		35		1
41		9		8		1
42		32		8		1
43		8		7		1
44		8		33		1
45		7		31		1
46		7		30		1

