@<TRIPOS>MOLECULE
GSX-2019-EJMC277-11-33c
 54 57 0 0 0
SMALL
MULLIKEN_CHARGES

@<TRIPOS>ATOM
1		C		-3.9491		4.2093		-1.2209		C.ar		1		UNL1		-0.1434
2		C		-2.7034		3.9381		-1.7644		C.ar		1		UNL1		-0.1621
3		C		-1.9669		2.8948		-1.1878		C.ar		1		UNL1		0.3659
4		C		-2.4496		2.1317		-0.0907		C.ar		1		UNL1		0.0714
5		C		-3.7159		2.4383		0.4465		C.ar		1		UNL1		-0.1895
6		C		-4.4470		3.4666		-0.1270		C.ar		1		UNL1		-0.1417
7		N		-0.7244		2.4102		-1.5077		N.ar		1		UNL1		-0.7202
8		C		-0.3678		1.3746		-0.6877		C.ar		1		UNL1		0.2547
9		C		-1.4170		1.1703		0.2151		C.ar		1		UNL1		-0.2988
10		S		-1.6121		-0.0735		1.4586		S.O2		1		UNL1		1.1739
11		O		-2.4912		0.4687		2.5041		O.2		1		UNL1		-0.5478
12		O		-0.2706		-0.5804		1.8375		O.2		1		UNL1		-0.5953
13		C		-2.4876		-1.4238		0.6496		C.ar		1		UNL1		-0.1299
14		C		-1.8197		-2.2053		-0.2980		C.ar		1		UNL1		-0.2006
15		C		-2.4949		-3.2565		-0.9181		C.ar		1		UNL1		0.1810
16		C		-3.8335		-3.4928		-0.5623		C.ar		1		UNL1		-0.2207
17		C		-4.5047		-2.7193		0.3871		C.ar		1		UNL1		0.1807
18		C		-3.8108		-1.6646		1.0003		C.ar		1		UNL1		-0.1973
19		C		-5.9449		-2.9963		0.7507		C.3		1		UNL1		-0.5304
20		C		-1.8054		-4.1343		-1.9363		C.3		1		UNL1		-0.5316
21		C		0.9972		0.8330		-1.0161		C.2		1		UNL1		0.5879
22		O		1.5822		1.3193		-1.9887		O.2		1		UNL1		-0.5536
23		N		1.5132		-0.1506		-0.2436		N.am		1		UNL1		-0.6723
24		C		2.8349		-0.6956		-0.5025		C.3		1		UNL1		-0.1927
25		C		3.9473		-0.0468		0.3222		C.ar		1		UNL1		0.1494
26		C		3.6248		0.8750		1.3260		C.ar		1		UNL1		-0.1872
27		C		4.6004		1.4955		2.1048		C.ar		1		UNL1		-0.1059
28		C		5.9511		1.2183		1.8949		C.ar		1		UNL1		-0.1392
29		C		6.3106		0.3143		0.9034		C.ar		1		UNL1		-0.1492
30		C		5.3211		-0.3095		0.1390		C.ar		1		UNL1		0.2169
31		N		5.8006		-1.2675		-0.8719		N.pl3		1		UNL1		0.3710
32		O		4.9782		-2.0216		-1.3987		O.2		1		UNL1		-0.4021
33		O		7.0026		-1.2768		-1.1343		O.2		1		UNL1		-0.3912
34		H		-4.5515		5.0103		-1.6397		H		1		UNL1		0.1352
35		H		-2.3105		4.5081		-2.6013		H		1		UNL1		0.1391
36		H		-4.0944		1.8893		1.3002		H		1		UNL1		0.1685
37		H		-5.4239		3.7149		0.2782		H		1		UNL1		0.1331
38		H		-0.0830		2.7122		-2.2324		H		1		UNL1		0.3591
39		H		-0.7823		-2.0014		-0.5459		H		1		UNL1		0.1508
40		H		-4.3656		-4.3118		-1.0427		H		1		UNL1		0.1287
41		H		-4.2875		-1.0441		1.7524		H		1		UNL1		0.1736
42		H		-6.0622		-3.1361		1.8317		H		1		UNL1		0.1721
43		H		-6.3163		-3.8967		0.2524		H		1		UNL1		0.1599
44		H		-6.5950		-2.1614		0.4612		H		1		UNL1		0.1713
45		H		-1.6722		-5.1543		-1.5544		H		1		UNL1		0.1725
46		H		-0.8165		-3.7454		-2.1961		H		1		UNL1		0.1656
47		H		-2.3917		-4.2092		-2.8595		H		1		UNL1		0.1676
48		H		0.9972		-0.4384		0.5890		H		1		UNL1		0.4140
49		H		3.0413		-0.5774		-1.5665		H		1		UNL1		0.2112
50		H		2.8115		-1.7699		-0.3035		H		1		UNL1		0.1901
51		H		2.5802		1.1074		1.4991		H		1		UNL1		0.1527
52		H		4.2994		2.1984		2.8765		H		1		UNL1		0.1507
53		H		6.7176		1.6982		2.4956		H		1		UNL1		0.1488
54		H		7.3468		0.0743		0.7022		H		1		UNL1		0.1851
@<TRIPOS>BOND
1		47		20		1
2		35		2		1
3		38		7		1
4		46		20		1
5		22		21		2
6		20		45		1
7		20		15		1
8		2		1		ar
9		2		3		ar
10		34		1		1
11		49		24		1
12		7		3		ar
13		7		8		ar
14		32		31		2
15		1		6		ar
16		3		4		ar
17		33		31		2
18		40		16		1
19		21		8		1
20		21		23		1
21		15		16		ar
22		15		14		ar
23		31		30		1
24		8		9		ar
25		16		17		ar
26		39		14		1
27		24		50		1
28		24		23		1
29		24		25		1
30		14		13		ar
31		23		48		1
32		6		37		1
33		6		5		ar
34		4		9		ar
35		4		5		ar
36		30		25		ar
37		30		29		ar
38		9		10		1
39		43		19		1
40		25		26		ar
41		17		19		1
42		17		18		ar
43		5		36		1
44		44		19		1
45		13		18		ar
46		13		10		1
47		54		29		1
48		19		42		1
49		29		28		ar
50		18		41		1
51		26		51		1
52		26		27		ar
53		10		12		2
54		10		11		2
55		28		27		ar
56		28		53		1
57		27		52		1

