@<TRIPOS>MOLECULE
GSX-2011-BMC-5117-10g
 41 43 0 0 0
SMALL
MULLIKEN_CHARGES
****
Gaussian 16 #p B3LYP/6-31G* opt
@<TRIPOS>ATOM
1		C		-6.7863		-2.5912		1.1681		C.3		1		UNL1		-0.2152
2		O		-5.6078		-2.7385		0.3925		O.3		1		UNL1		-0.5070
3		C		-4.8900		-1.6174		0.0900		C.ar		1		UNL1		0.3800
4		C		-5.2296		-0.3199		0.4864		C.ar		1		UNL1		-0.1986
5		C		-4.4159		0.7555		0.1155		C.ar		1		UNL1		-0.1804
6		C		-3.2679		0.5582		-0.6506		C.ar		1		UNL1		0.1181
7		C		-2.3679		1.7202		-1.0486		C.3		1		UNL1		0.0210
8		O		-3.0674		2.9362		-0.8128		O.3		1		UNL1		-0.6306
9		C		-1.0548		1.6766		-0.2685		C.ar		1		UNL1		0.3040
10		C		-0.9125		2.3221		0.9672		C.ar		1		UNL1		-0.2009
11		C		0.3215		2.1906		1.5888		C.ar		1		UNL1		0.0733
12		N		1.3397		1.4946		1.0667		N.ar		1		UNL1		-0.4778
13		C		1.0946		0.9179		-0.1169		C.ar		1		UNL1		0.6931
14		N		2.0726		0.1767		-0.7472		N.pl3		1		UNL1		-0.7653
15		C		3.3857		-0.1413		-0.3996		C.ar		1		UNL1		0.3829
16		C		4.1054		-0.9403		-1.3118		C.ar		1		UNL1		-0.2057
17		C		5.4156		-1.3089		-1.0572		C.ar		1		UNL1		-0.1404
18		C		6.0512		-0.8877		0.1244		C.ar		1		UNL1		0.1310
19		C		7.4050		-1.2639		0.3942		C.1		1		UNL1		0.2271
20		N		8.5068		-1.5703		0.6123		N.1		1		UNL1		-0.4851
21		C		5.3343		-0.0923		1.0335		C.ar		1		UNL1		-0.1532
22		C		4.0196		0.2808		0.7840		C.ar		1		UNL1		-0.1598
23		N		-0.0579		0.9827		-0.8178		N.ar		1		UNL1		-0.5512
24		C		-2.9386		-0.7481		-1.0441		C.ar		1		UNL1		-0.1717
25		C		-3.7351		-1.8243		-0.6804		C.ar		1		UNL1		-0.1752
26		H		-7.1929		-3.5970		1.2890		H		1		UNL1		0.1706
27		H		-6.5687		-2.1670		2.1574		H		1		UNL1		0.1523
28		H		-7.5275		-1.9592		0.6611		H		1		UNL1		0.1528
29		H		-6.1189		-0.1309		1.0768		H		1		UNL1		0.1321
30		H		-4.6899		1.7605		0.4162		H		1		UNL1		0.1538
31		H		-2.1071		1.6176		-2.1121		H		1		UNL1		0.1493
32		H		-2.5020		3.6639		-1.1148		H		1		UNL1		0.3998
33		H		-1.7269		2.8865		1.4037		H		1		UNL1		0.1591
34		H		0.5163		2.6607		2.5514		H		1		UNL1		0.1551
35		H		1.7441		-0.1964		-1.6288		H		1		UNL1		0.3452
36		H		3.6245		-1.2722		-2.2291		H		1		UNL1		0.1363
37		H		5.9555		-1.9242		-1.7697		H		1		UNL1		0.1577
38		H		5.8171		0.2367		1.9484		H		1		UNL1		0.1579
39		H		3.4746		0.8925		1.4882		H		1		UNL1		0.1892
40		H		-2.0437		-0.9200		-1.6363		H		1		UNL1		0.1377
41		H		-3.4880		-2.8368		-0.9838		H		1		UNL1		0.1388
@<TRIPOS>BOND
1		36		16		1
2		31		7		1
3		37		17		1
4		40		24		1
5		35		14		1
6		16		17		ar
7		16		15		ar
8		32		8		1
9		17		18		ar
10		7		8		1
11		7		6		1
12		7		9		1
13		24		25		ar
14		24		6		ar
15		41		25		1
16		23		9		ar
17		23		13		ar
18		14		15		1
19		14		13		1
20		25		3		ar
21		6		5		ar
22		15		22		ar
23		9		10		ar
24		13		12		ar
25		3		2		1
26		3		4		ar
27		5		30		1
28		5		4		ar
29		18		19		1
30		18		21		ar
31		2		1		1
32		19		20		3
33		4		29		1
34		28		1		1
35		22		21		ar
36		22		39		1
37		10		33		1
38		10		11		ar
39		21		38		1
40		12		11		ar
41		1		26		1
42		1		27		1
43		11		34		1

