@<TRIPOS>MOLECULE
GSX-2019-EJMC277-5-15a7
 48 50 0 0 0
SMALL
MULLIKEN_CHARGES

@<TRIPOS>ATOM
1		C		2.5827		4.3714		-0.0004		C.1		1		UNL1		0.2311
2		N		3.5050		5.0804		-0.0007		N.1		1		UNL1		-0.4745
3		C		0.8879		3.0739		-1.2157		C.ar		1		UNL1		-0.2315
4		C		-0.2211		2.2269		-1.2341		C.ar		1		UNL1		0.1789
5		C		-0.7379		1.8166		0.0010		C.ar		1		UNL1		0.2319
6		C		-0.2182		2.2245		1.2356		C.ar		1		UNL1		0.1789
7		C		0.8908		3.0715		1.2163		C.ar		1		UNL1		-0.2315
8		C		1.4471		3.4956		0.0001		C.ar		1		UNL1		0.1644
9		C		-1.8697		-0.2774		0.0006		C.ar		1		UNL1		0.5453
10		C		-3.0899		-1.0043		0.0001		C.ar		1		UNL1		0.0068
11		C		-2.9096		-2.3971		-0.0004		C.ar		1		UNL1		0.0125
12		N		-1.7339		-3.0140		-0.0007		N.ar		1		UNL1		-0.4979
13		C		-0.6555		-2.2004		-0.0004		C.ar		1		UNL1		0.7004
14		N		-0.6764		-0.8600		0.0003		N.ar		1		UNL1		-0.5552
15		C		3.6357		-0.7969		-0.0004		C.ar		1		UNL1		-0.1581
16		C		2.2798		-1.1047		-0.0005		C.ar		1		UNL1		-0.1627
17		C		1.8713		-2.4497		-0.0007		C.ar		1		UNL1		0.3759
18		C		2.8479		-3.4648		-0.0009		C.ar		1		UNL1		-0.2028
19		C		4.1973		-3.1523		-0.0009		C.ar		1		UNL1		-0.1395
20		C		4.6096		-1.8082		-0.0006		C.ar		1		UNL1		0.1348
21		O		-1.9195		1.0646		0.0014		O.3		1		UNL1		-0.5228
22		N		0.5365		-2.8732		-0.0007		N.pl3		1		UNL1		-0.7616
23		C		6.0033		-1.4811		-0.0005		C.1		1		UNL1		0.2326
24		N		7.1381		-1.2227		-0.0005		N.1		1		UNL1		-0.4763
25		C		-4.4385		-0.3775		-0.0000		C.2		1		UNL1		0.3650
26		C		-0.8482		1.7692		-2.5264		C.3		1		UNL1		-0.5392
27		C		-0.8423		1.7642		2.5285		C.3		1		UNL1		-0.5392
28		C		-5.6754		-1.3037		0.0002		C.3		1		UNL1		-0.2466
29		O		-4.6013		0.8333		-0.0004		O.2		1		UNL1		-0.4549
30		N		-6.9517		-0.6095		0.0003		N.3		1		UNL1		-0.6829
31		H		1.3193		3.4170		-2.1509		H		1		UNL1		0.1588
32		H		1.3243		3.4127		2.1512		H		1		UNL1		0.1588
33		H		-3.7736		-3.0566		-0.0007		H		1		UNL1		0.1693
34		H		3.9457		0.2432		-0.0003		H		1		UNL1		0.1692
35		H		1.5411		-0.3169		-0.0004		H		1		UNL1		0.1974
36		H		2.5394		-4.5076		-0.0011		H		1		UNL1		0.1428
37		H		4.9392		-3.9440		-0.0010		H		1		UNL1		0.1637
38		H		0.3909		-3.8757		-0.0010		H		1		UNL1		0.3549
39		H		-0.7007		0.6927		-2.6768		H		1		UNL1		0.1731
40		H		-0.4057		2.2909		-3.3792		H		1		UNL1		0.1663
41		H		-1.9278		1.9529		-2.5278		H		1		UNL1		0.1882
42		H		-0.6947		0.6873		2.6762		H		1		UNL1		0.1731
43		H		-1.9218		1.9483		2.5331		H		1		UNL1		0.1881
44		H		-0.3975		2.2840		3.3814		H		1		UNL1		0.1663
45		H		-5.6304		-1.9640		0.8771		H		1		UNL1		0.1679
46		H		-5.6306		-1.9642		-0.8766		H		1		UNL1		0.1679
47		H		-6.9787		0.0173		-0.8036		H		1		UNL1		0.3063
48		H		-6.9785		0.0175		0.8040		H		1		UNL1		0.3063
@<TRIPOS>BOND
1		40		26		1
2		39		26		1
3		41		26		1
4		26		4		1
5		31		3		1
6		4		3		ar
7		4		5		ar
8		3		8		ar
9		46		28		1
10		47		30		1
11		36		18		1
12		38		22		1
13		37		19		1
14		18		19		ar
15		18		17		ar
16		19		20		ar
17		2		1		3
18		22		17		1
19		22		13		1
20		33		11		1
21		17		16		ar
22		12		11		ar
23		12		13		ar
24		20		23		1
25		20		15		ar
26		23		24		3
27		16		15		ar
28		16		35		1
29		15		34		1
30		11		10		ar
31		29		25		2
32		13		14		ar
33		1		8		1
34		25		10		1
35		25		28		1
36		8		7		ar
37		10		9		ar
38		28		30		1
39		28		45		1
40		14		9		ar
41		30		48		1
42		9		21		1
43		5		21		1
44		5		6		ar
45		7		6		ar
46		7		32		1
47		6		27		1
48		27		43		1
49		27		42		1
50		27		44		1

