@<TRIPOS>MOLECULE
GSX-2019-EJMC277-11-34i
 49 52 0 0 0
SMALL
MULLIKEN_CHARGES

@<TRIPOS>ATOM
1		C		-3.7346		-3.2286		0.9499		C.ar		1		UNL1		-0.1456
2		C		-2.5167		-3.2733		1.6079		C.ar		1		UNL1		-0.1541
3		C		-1.5026		-2.4194		1.1565		C.ar		1		UNL1		0.3698
4		C		-1.6854		-1.5322		0.0625		C.ar		1		UNL1		0.0723
5		C		-2.9259		-1.5083		-0.6043		C.ar		1		UNL1		-0.1918
6		C		-3.9202		-2.3517		-0.1403		C.ar		1		UNL1		-0.0784
7		N		-0.2196		-2.2517		1.6085		N.ar		1		UNL1		-0.7213
8		C		0.4449		-1.3065		0.8763		C.ar		1		UNL1		0.2535
9		C		-0.4345		-0.8316		-0.1025		C.ar		1		UNL1		-0.2930
10		S		-0.2223		0.4737		-1.2812		S.O2		1		UNL1		1.1759
11		O		-1.1105		0.1923		-2.4176		O.2		1		UNL1		-0.5487
12		O		1.2270		0.6640		-1.5202		O.2		1		UNL1		-0.5890
13		C		-0.8320		1.9555		-0.4604		C.ar		1		UNL1		-0.1301
14		C		-0.0521		2.5604		0.5302		C.ar		1		UNL1		-0.2008
15		C		-0.5213		3.7109		1.1638		C.ar		1		UNL1		0.1814
16		C		-1.7708		4.2243		0.7775		C.ar		1		UNL1		-0.2203
17		C		-2.5519		3.6287		-0.2151		C.ar		1		UNL1		0.1800
18		C		-2.0657		2.4704		-0.8413		C.ar		1		UNL1		-0.1961
19		C		1.8603		-1.1121		1.3538		C.2		1		UNL1		0.5900
20		O		2.1968		-1.7199		2.3758		O.2		1		UNL1		-0.5568
21		N		2.6783		-0.3023		0.6479		N.am		1		UNL1		-0.6580
22		CL		-5.4883		-2.3470		-0.9432		Cl		1		UNL1		-0.0261
23		C		4.0763		-0.1322		1.0091		C.3		1		UNL1		-0.2131
24		C		4.9824		-0.5014		-0.1256		C.ar		1		UNL1		0.3347
25		C		-3.8905		4.2042		-0.6146		C.3		1		UNL1		-0.5308
26		C		0.2912		4.3988		2.2360		C.3		1		UNL1		-0.5309
27		C		4.8195		-1.1982		-1.2853		C.ar		1		UNL1		-0.1971
28		C		6.0993		-1.2009		-1.9369		C.ar		1		UNL1		-0.1820
29		C		6.9404		-0.5083		-1.1249		C.ar		1		UNL1		0.0822
30		O		6.2750		-0.0693		-0.0137		O.2		1		UNL1		-0.4442
31		H		-4.5519		-3.8690		1.2624		H		1		UNL1		0.1584
32		H		-2.3576		-3.9476		2.4439		H		1		UNL1		0.1482
33		H		-3.0876		-0.8687		-1.4620		H		1		UNL1		0.1917
34		H		0.2596		-2.7116		2.3747		H		1		UNL1		0.3609
35		H		0.9147		2.1446		0.7972		H		1		UNL1		0.1517
36		H		-2.1409		5.1228		1.2679		H		1		UNL1		0.1291
37		H		-2.6316		1.9835		-1.6289		H		1		UNL1		0.1754
38		H		2.3371		0.1038		-0.2252		H		1		UNL1		0.4152
39		H		4.2575		-0.7547		1.8911		H		1		UNL1		0.2115
40		H		4.2701		0.9090		1.3021		H		1		UNL1		0.1713
41		H		-4.0995		5.1372		-0.0826		H		1		UNL1		0.1595
42		H		-4.7051		3.5032		-0.3949		H		1		UNL1		0.1739
43		H		-3.9275		4.4137		-1.6901		H		1		UNL1		0.1732
44		H		-0.2568		4.4395		3.1852		H		1		UNL1		0.1694
45		H		0.5263		5.4323		1.9544		H		1		UNL1		0.1707
46		H		1.2363		3.8785		2.4176		H		1		UNL1		0.1625
47		H		3.9030		-1.6473		-1.6401		H		1		UNL1		0.1487
48		H		6.3484		-1.6572		-2.8849		H		1		UNL1		0.1432
49		H		7.9847		-0.2416		-1.1787		H		1		UNL1		0.1538
@<TRIPOS>BOND
1		48		28		1
2		11		10		2
3		28		27		ar
4		28		29		ar
5		43		25		1
6		47		27		1
7		37		18		1
8		12		10		2
9		33		5		1
10		27		24		ar
11		10		13		1
12		10		9		1
13		49		29		1
14		29		30		ar
15		22		6		1
16		18		13		ar
17		18		17		ar
18		25		42		1
19		25		17		1
20		25		41		1
21		5		6		ar
22		5		4		ar
23		13		14		ar
24		38		21		1
25		17		16		ar
26		6		1		ar
27		24		30		ar
28		24		23		1
29		9		4		ar
30		9		8		ar
31		4		3		ar
32		14		35		1
33		14		15		ar
34		21		23		1
35		21		19		1
36		16		15		ar
37		16		36		1
38		8		19		1
39		8		7		ar
40		1		31		1
41		1		2		ar
42		23		40		1
43		23		39		1
44		3		2		ar
45		3		7		ar
46		15		26		1
47		19		20		2
48		2		32		1
49		7		34		1
50		45		26		1
51		26		46		1
52		26		44		1

