@<TRIPOS>MOLECULE
GSX-2011-BMC-5117-10o
 40 42 0 0 0
SMALL
MULLIKEN_CHARGES
****
Gaussian 16 #p B3LYP/6-31G* opt
@<TRIPOS>ATOM
1		C		-2.5895		4.3609		-0.4272		C.3		1		UNL1		-0.5125
2		C		-1.8086		3.1257		-0.0647		C.ar		1		UNL1		0.3433
3		C		-2.4239		1.9969		0.4955		C.ar		1		UNL1		-0.2440
4		C		-1.6095		0.9067		0.7789		C.ar		1		UNL1		0.3170
5		C		-2.1361		-0.3619		1.4552		C.3		1		UNL1		-0.0149
6		O		-3.4907		-0.2484		1.8698		O.3		1		UNL1		-0.6096
7		C		-1.9838		-1.6117		0.5996		C.ar		1		UNL1		0.2090
8		C		-1.0985		-2.6076		1.0356		C.ar		1		UNL1		-0.1904
9		C		-0.8950		-3.7839		0.3174		C.ar		1		UNL1		-0.1264
10		C		-1.5933		-3.9924		-0.8705		C.ar		1		UNL1		-0.1218
11		C		-2.4846		-3.0238		-1.3282		C.ar		1		UNL1		-0.1268
12		C		-2.6733		-1.8483		-0.6002		C.ar		1		UNL1		-0.1208
13		CL		-3.8106		-0.6796		-1.2613		Cl		1		UNL1		-0.0076
14		N		-0.2906		0.9166		0.5364		N.ar		1		UNL1		-0.5453
15		C		0.1967		2.0361		-0.0088		C.ar		1		UNL1		0.6883
16		N		1.5425		2.1383		-0.3036		N.pl3		1		UNL1		-0.7706
17		C		2.6039		1.2428		-0.1880		C.ar		1		UNL1		0.3831
18		C		2.4758		-0.0916		0.2420		C.ar		1		UNL1		-0.1621
19		C		3.5996		-0.9048		0.3136		C.ar		1		UNL1		-0.1546
20		C		4.8721		-0.4234		-0.0358		C.ar		1		UNL1		0.1308
21		C		6.0201		-1.2733		0.0448		C.1		1		UNL1		0.2259
22		N		6.9541		-1.9652		0.1110		N.1		1		UNL1		-0.4865
23		C		4.9979		0.9092		-0.4675		C.ar		1		UNL1		-0.1410
24		C		3.8816		1.7251		-0.5410		C.ar		1		UNL1		-0.2049
25		N		-0.4967		3.1508		-0.3149		N.ar		1		UNL1		-0.5415
26		H		-3.6172		4.3133		-0.0571		H		1		UNL1		0.1593
27		H		-2.1005		5.2519		-0.0204		H		1		UNL1		0.1777
28		H		-2.6191		4.4794		-1.5169		H		1		UNL1		0.1827
29		H		-3.4904		1.9591		0.6762		H		1		UNL1		0.1533
30		H		-1.4849		-0.5123		2.3292		H		1		UNL1		0.1496
31		H		-3.5313		0.4417		2.5512		H		1		UNL1		0.3972
32		H		-0.5611		-2.4497		1.9670		H		1		UNL1		0.1397
33		H		-0.2008		-4.5324		0.6879		H		1		UNL1		0.1414
34		H		-1.4508		-4.9043		-1.4432		H		1		UNL1		0.1443
35		H		-3.0381		-3.1698		-2.2496		H		1		UNL1		0.1576
36		H		1.7671		3.0492		-0.6836		H		1		UNL1		0.3457
37		H		1.5009		-0.4717		0.5103		H		1		UNL1		0.1883
38		H		3.4927		-1.9335		0.6435		H		1		UNL1		0.1538
39		H		5.9736		1.2968		-0.7422		H		1		UNL1		0.1570
40		H		3.9917		2.7543		-0.8750		H		1		UNL1		0.1364
@<TRIPOS>BOND
1		35		11		1
2		28		1		1
3		34		10		1
4		11		10		ar
5		11		12		ar
6		13		12		1
7		40		24		1
8		10		9		ar
9		39		23		1
10		36		16		1
11		12		7		ar
12		24		23		ar
13		24		17		ar
14		23		20		ar
15		1		2		1
16		1		26		1
17		1		27		1
18		25		2		ar
19		25		15		ar
20		16		17		1
21		16		15		1
22		17		18		ar
23		2		3		ar
24		20		21		1
25		20		19		ar
26		15		14		ar
27		21		22		3
28		18		19		ar
29		18		37		1
30		19		38		1
31		9		33		1
32		9		8		ar
33		3		29		1
34		3		4		ar
35		14		4		ar
36		7		8		ar
37		7		5		1
38		4		5		1
39		8		32		1
40		5		6		1
41		5		30		1
42		6		31		1

