@<TRIPOS>MOLECULE
GSX-2011-BMC-5117-10y
 43 45 0 0 0
SMALL
MULLIKEN_CHARGES
****
Gaussian 16 #p B3LYP/6-31G* opt
@<TRIPOS>ATOM
1		C		7.2555		-1.1451		0.1122		C.3		1		UNL1		-0.5312
2		C		5.7734		-1.1656		-0.1837		C.ar		1		UNL1		0.1812
3		C		5.2615		-1.9375		-1.2347		C.ar		1		UNL1		-0.1742
4		C		3.8952		-1.9415		-1.5109		C.ar		1		UNL1		-0.1321
5		C		3.0165		-1.1715		-0.7480		C.ar		1		UNL1		-0.1753
6		C		3.5053		-0.3872		0.3035		C.ar		1		UNL1		0.0919
7		C		2.5762		0.4373		1.1981		C.3		1		UNL1		0.0160
8		O		3.2391		1.5527		1.7921		O.3		1		UNL1		-0.6212
9		C		1.2779		0.8566		0.5073		C.ar		1		UNL1		0.2764
10		N		0.2081		0.1428		0.8605		N.ar		1		UNL1		-0.5540
11		C		-0.9720		0.4626		0.2920		C.ar		1		UNL1		0.6906
12		N		-2.0180		-0.3292		0.7230		N.pl3		1		UNL1		-0.7670
13		C		-3.3754		-0.3475		0.4066		C.ar		1		UNL1		0.3835
14		C		-4.1653		-1.3176		1.0580		C.ar		1		UNL1		-0.2059
15		C		-5.5237		-1.4154		0.8085		C.ar		1		UNL1		-0.1406
16		C		-6.1394		-0.5416		-0.1056		C.ar		1		UNL1		0.1305
17		C		-7.5423		-0.6371		-0.3692		C.1		1		UNL1		0.2266
18		N		-8.6840		-0.7161		-0.5833		N.1		1		UNL1		-0.4860
19		C		-5.3530		0.4250		-0.7541		C.ar		1		UNL1		-0.1533
20		C		-3.9897		0.5285		-0.5082		C.ar		1		UNL1		-0.1611
21		N		-1.1744		1.4341		-0.6029		N.ar		1		UNL1		-0.4742
22		C		-0.0842		2.1302		-0.9434		C.ar		1		UNL1		0.0172
23		C		1.1927		1.9076		-0.4325		C.ar		1		UNL1		0.1292
24		C		2.3586		2.7522		-0.8798		C.3		1		UNL1		-0.5695
25		C		4.8801		-0.4018		0.5766		C.ar		1		UNL1		-0.2518
26		H		7.7022		-2.1378		-0.0111		H		1		UNL1		0.1620
27		H		7.4556		-0.8087		1.1345		H		1		UNL1		0.1605
28		H		7.7877		-0.4655		-0.5669		H		1		UNL1		0.1662
29		H		5.9368		-2.5426		-1.8355		H		1		UNL1		0.1264
30		H		3.5094		-2.5495		-2.3250		H		1		UNL1		0.1346
31		H		1.9534		-1.1925		-0.9662		H		1		UNL1		0.1402
32		H		2.2640		-0.1838		2.0447		H		1		UNL1		0.1856
33		H		3.8084		1.9536		1.1171		H		1		UNL1		0.3960
34		H		-1.7092		-1.0133		1.4020		H		1		UNL1		0.3464
35		H		-3.7006		-1.9988		1.7670		H		1		UNL1		0.1366
36		H		-6.1172		-2.1674		1.3182		H		1		UNL1		0.1572
37		H		-5.8200		1.1039		-1.4607		H		1		UNL1		0.1571
38		H		-3.3920		1.2751		-1.0108		H		1		UNL1		0.1883
39		H		-0.2418		2.9189		-1.6791		H		1		UNL1		0.1468
40		H		2.6718		3.4547		-0.0979		H		1		UNL1		0.1772
41		H		3.2252		2.1395		-1.1553		H		1		UNL1		0.1707
42		H		2.0866		3.3440		-1.7599		H		1		UNL1		0.1650
43		H		5.2576		0.1833		1.4111		H		1		UNL1		0.1373
@<TRIPOS>BOND
1		30		4		1
2		29		3		1
3		42		24		1
4		39		22		1
5		4		3		ar
6		4		5		ar
7		37		19		1
8		3		2		ar
9		41		24		1
10		38		20		1
11		31		5		1
12		22		21		ar
13		22		23		ar
14		24		23		1
15		24		40		1
16		19		20		ar
17		19		16		ar
18		5		6		ar
19		21		11		ar
20		18		17		3
21		28		1		1
22		20		13		ar
23		23		9		ar
24		17		16		1
25		2		1		1
26		2		25		ar
27		16		15		ar
28		26		1		1
29		1		27		1
30		11		12		1
31		11		10		ar
32		6		25		ar
33		6		7		1
34		13		12		1
35		13		14		ar
36		9		10		ar
37		9		7		1
38		25		43		1
39		12		34		1
40		15		14		ar
41		15		36		1
42		14		35		1
43		33		8		1
44		7		8		1
45		7		32		1

