@<TRIPOS>MOLECULE
GSX-2011-BMC-4220-12f
 55 58 0 0 0
SMALL
MULLIKEN_CHARGES
****
Gaussian 16 #p B3LYP/6-31G* opt
@<TRIPOS>ATOM
1		C		2.6629		-0.9973		-2.9502		C.3		1		UNL1		-0.5505
2		C		2.7469		-1.1920		-1.4583		C.ar		1		UNL1		0.2079
3		C		1.9951		-2.2061		-0.8523		C.ar		1		UNL1		-0.2180
4		C		2.0702		-2.4382		0.5198		C.ar		1		UNL1		-0.1414
5		S		1.1533		-3.8055		1.2440		S.O2		1		UNL1		1.1821
6		N		2.1630		-5.1544		1.2045		N.3		1		UNL1		-0.7843
7		O		0.9561		-3.5025		2.6593		O.2		1		UNL1		-0.5188
8		O		0.0529		-4.1324		0.3344		O.2		1		UNL1		-0.5413
9		C		2.8754		-1.6465		1.3392		C.ar		1		UNL1		-0.1634
10		C		3.6136		-0.6257		0.7531		C.ar		1		UNL1		-0.1493
11		C		3.5608		-0.3943		-0.6295		C.ar		1		UNL1		0.2472
12		N		4.4486		0.5986		-1.1469		N.am		1		UNL1		-0.6965
13		C		4.2705		1.8080		-1.7846		C.2		1		UNL1		0.5654
14		O		5.2316		2.5271		-2.0209		O.2		1		UNL1		-0.4962
15		C		2.8880		2.2652		-2.2592		C.3		1		UNL1		-0.1442
16		O		1.7588		1.7560		-1.5758		O.3		1		UNL1		-0.5188
17		C		1.4247		2.3048		-0.3664		C.ar		1		UNL1		0.3395
18		C		2.2305		3.1700		0.3740		C.ar		1		UNL1		-0.2044
19		C		1.7936		3.6714		1.6049		C.ar		1		UNL1		-0.1427
20		C		0.5500		3.2883		2.0907		C.ar		1		UNL1		-0.0751
21		CL		-0.0064		3.8997		3.6431		Cl		1		UNL1		-0.0208
22		C		-0.2719		2.4186		1.3715		C.ar		1		UNL1		-0.1745
23		C		0.1598		1.9371		0.1388		C.ar		1		UNL1		0.3215
24		O		-0.5660		1.0564		-0.6238		O.3		1		UNL1		-0.5596
25		C		-1.9455		1.1050		-0.6133		C.ar		1		UNL1		0.3099
26		C		-2.6171		2.3326		-0.8370		C.ar		1		UNL1		-0.1550
27		C		-3.9864		2.3622		-0.9115		C.ar		1		UNL1		-0.2005
28		C		-4.7522		1.1739		-0.7781		C.ar		1		UNL1		0.1516
29		C		-6.1697		1.1922		-0.8552		C.ar		1		UNL1		-0.1962
30		C		-6.9019		0.0343		-0.7267		C.ar		1		UNL1		-0.1315
31		C		-6.2393		-1.1969		-0.5143		C.ar		1		UNL1		-0.1330
32		C		-4.8654		-1.2530		-0.4353		C.ar		1		UNL1		-0.1901
33		C		-4.0797		-0.0767		-0.5640		C.ar		1		UNL1		0.0901
34		C		-2.6541		-0.0725		-0.4821		C.ar		1		UNL1		-0.0467
35		BR		-1.6886		-1.6914		-0.1960		Br		1		UNL1		-0.0790
36		H		3.6038		-0.6170		-3.3601		H		1		UNL1		0.1641
37		H		2.4278		-1.9411		-3.4514		H		1		UNL1		0.1651
38		H		1.8670		-0.2861		-3.2002		H		1		UNL1		0.1981
39		H		1.3393		-2.8207		-1.4610		H		1		UNL1		0.1766
40		H		2.9897		-5.0408		1.7856		H		1		UNL1		0.3489
41		H		2.3879		-5.4460		0.2566		H		1		UNL1		0.3490
42		H		2.8983		-1.8099		2.4113		H		1		UNL1		0.1810
43		H		4.2352		0.0179		1.3691		H		1		UNL1		0.1504
44		H		5.4086		0.5238		-0.8242		H		1		UNL1		0.3431
45		H		2.9077		3.3600		-2.2491		H		1		UNL1		0.1872
46		H		2.7692		1.9423		-3.2982		H		1		UNL1		0.1914
47		H		3.2043		3.4697		0.0023		H		1		UNL1		0.1663
48		H		2.4210		4.3494		2.1725		H		1		UNL1		0.1574
49		H		-1.2365		2.1175		1.7621		H		1		UNL1		0.1804
50		H		-2.0288		3.2371		-0.9515		H		1		UNL1		0.1514
51		H		-4.5022		3.3031		-1.0848		H		1		UNL1		0.1400
52		H		-6.6668		2.1455		-1.0184		H		1		UNL1		0.1329
53		H		-7.9862		0.0627		-0.7874		H		1		UNL1		0.1335
54		H		-6.8201		-2.1095		-0.4118		H		1		UNL1		0.1365
55		H		-4.3636		-2.1996		-0.2706		H		1		UNL1		0.1631
@<TRIPOS>BOND
1		37		1		1
2		36		1		1
3		46		15		1
4		38		1		1
5		1		2		1
6		15		45		1
7		15		13		1
8		15		16		1
9		14		13		2
10		13		12		1
11		16		17		1
12		39		3		1
13		2		3		ar
14		2		11		ar
15		12		44		1
16		12		11		1
17		51		27		1
18		52		29		1
19		50		26		1
20		27		26		ar
21		27		28		ar
22		29		28		ar
23		29		30		ar
24		3		4		ar
25		26		25		ar
26		53		30		1
27		28		33		ar
28		30		31		ar
29		11		10		ar
30		24		25		1
31		24		23		1
32		25		34		ar
33		33		34		ar
34		33		32		ar
35		31		32		ar
36		31		54		1
37		34		35		1
38		32		55		1
39		17		23		ar
40		17		18		ar
41		47		18		1
42		23		22		ar
43		41		6		1
44		8		5		2
45		18		19		ar
46		4		5		1
47		4		9		ar
48		10		9		ar
49		10		43		1
50		6		5		1
51		6		40		1
52		5		7		2
53		9		42		1
54		22		49		1
55		22		20		ar
56		19		20		ar
57		19		48		1
58		20		21		1

