@<TRIPOS>MOLECULE
GSX-2019-EJMC277-5-15a3
 58 61 0 0 0
SMALL
MULLIKEN_CHARGES

@<TRIPOS>ATOM
1		C		4.0011		4.2366		-0.1932		C.1		1		UNL1		0.2310
2		N		4.9643		4.8806		-0.2981		N.1		1		UNL1		-0.4751
3		C		2.0645		3.1145		-1.2044		C.ar		1		UNL1		-0.2309
4		C		0.9055		2.3447		-1.0970		C.ar		1		UNL1		0.1802
5		C		0.5372		1.9111		0.1826		C.ar		1		UNL1		0.2310
6		C		1.2484		2.2274		1.3465		C.ar		1		UNL1		0.1774
7		C		2.4024		2.9992		1.2016		C.ar		1		UNL1		-0.2324
8		C		2.8153		3.4403		-0.0648		C.ar		1		UNL1		0.1644
9		C		-0.7297		-0.1040		0.2453		C.ar		1		UNL1		0.5500
10		C		-1.9960		-0.7424		0.3032		C.ar		1		UNL1		0.0036
11		C		-1.9184		-2.1437		0.2770		C.ar		1		UNL1		0.0159
12		N		-0.7931		-2.8425		0.1869		N.ar		1		UNL1		-0.4983
13		C		0.3387		-2.1075		0.1212		C.ar		1		UNL1		0.7007
14		N		0.4155		-0.7699		0.1535		N.ar		1		UNL1		-0.5559
15		C		4.7045		-1.0061		-0.1994		C.ar		1		UNL1		-0.1581
16		C		3.3339		-1.2192		-0.1052		C.ar		1		UNL1		-0.1627
17		C		2.8339		-2.5328		-0.0726		C.ar		1		UNL1		0.3761
18		C		3.7357		-3.6129		-0.1376		C.ar		1		UNL1		-0.2029
19		C		5.1002		-3.3945		-0.2319		C.ar		1		UNL1		-0.1395
20		C		5.6038		-2.0823		-0.2638		C.ar		1		UNL1		0.1347
21		O		-0.6828		1.2362		0.3113		O.3		1		UNL1		-0.5245
22		N		1.4760		-2.8626		0.0181		N.pl3		1		UNL1		-0.7618
23		C		7.0136		-1.8527		-0.3604		C.1		1		UNL1		0.2325
24		N		8.1608		-1.6738		-0.4388		N.1		1		UNL1		-0.4767
25		C		-3.2913		-0.0143		0.3426		C.2		1		UNL1		0.3870
26		C		0.0708		1.9907		-2.3018		C.3		1		UNL1		-0.5422
27		C		0.7770		1.7522		2.6972		C.3		1		UNL1		-0.5384
28		C		-4.5652		-0.8263		0.6079		C.3		1		UNL1		-0.1929
29		O		-3.3726		1.1870		0.1352		O.2		1		UNL1		-0.4614
30		N		-5.6510		0.0560		0.9740		N.3		1		UNL1		-0.5545
31		C		-6.9950		-0.4929		0.8078		C.3		1		UNL1		-0.1472
32		C		-7.4681		-0.7010		-0.6241		C.3		1		UNL1		-0.1009
33		C		-8.9414		-0.6322		-0.9453		C.3		1		UNL1		-0.3171
34		C		-8.0171		0.4687		-1.4070		C.3		1		UNL1		-0.3124
35		H		2.3855		3.4726		-2.1776		H		1		UNL1		0.1584
36		H		2.9840		3.2676		2.0779		H		1		UNL1		0.1585
37		H		-2.8279		-2.7382		0.3190		H		1		UNL1		0.1682
38		H		5.0848		0.0101		-0.2241		H		1		UNL1		0.1691
39		H		2.6531		-0.3822		-0.0571		H		1		UNL1		0.1976
40		H		3.3570		-4.6320		-0.1130		H		1		UNL1		0.1423
41		H		5.7837		-4.2358		-0.2810		H		1		UNL1		0.1633
42		H		1.2598		-3.8522		0.0147		H		1		UNL1		0.3545
43		H		0.1648		0.9253		-2.5473		H		1		UNL1		0.1716
44		H		0.3881		2.5643		-3.1768		H		1		UNL1		0.1655
45		H		-0.9900		2.1887		-2.1168		H		1		UNL1		0.1953
46		H		0.8511		0.6611		2.7789		H		1		UNL1		0.1745
47		H		-0.2709		2.0211		2.8676		H		1		UNL1		0.1862
48		H		1.3808		2.1913		3.4960		H		1		UNL1		0.1661
49		H		-4.3873		-1.5546		1.4118		H		1		UNL1		0.1578
50		H		-4.7472		-1.4248		-0.3100		H		1		UNL1		0.1398
51		H		-5.5423		0.9314		0.4657		H		1		UNL1		0.3197
52		H		-7.6930		0.1890		1.3123		H		1		UNL1		0.1382
53		H		-7.0432		-1.4422		1.3592		H		1		UNL1		0.1375
54		H		-6.8971		-1.4286		-1.1996		H		1		UNL1		0.1339
55		H		-9.6276		-0.4102		-0.1310		H		1		UNL1		0.1509
56		H		-9.3446		-1.3164		-1.6868		H		1		UNL1		0.1508
57		H		-7.7869		0.5410		-2.4665		H		1		UNL1		0.1508
58		H		-8.0842		1.4312		-0.9039		H		1		UNL1		0.1507
@<TRIPOS>BOND
1		44		26		1
2		43		26		1
3		57		34		1
4		26		45		1
5		26		4		1
6		35		3		1
7		56		33		1
8		34		33		1
9		34		58		1
10		34		32		1
11		3		4		ar
12		3		8		ar
13		54		32		1
14		4		5		ar
15		33		32		1
16		33		55		1
17		32		31		1
18		24		23		3
19		23		20		1
20		50		28		1
21		2		1		3
22		41		19		1
23		20		19		ar
24		20		15		ar
25		19		18		ar
26		38		15		1
27		15		16		ar
28		1		8		1
29		18		40		1
30		18		17		ar
31		16		17		ar
32		16		39		1
33		17		22		1
34		8		7		ar
35		42		22		1
36		22		13		1
37		13		14		ar
38		13		12		ar
39		29		25		2
40		14		9		ar
41		5		21		1
42		5		6		ar
43		12		11		ar
44		9		10		ar
45		9		21		1
46		11		10		ar
47		11		37		1
48		10		25		1
49		25		28		1
50		51		30		1
51		28		30		1
52		28		49		1
53		31		30		1
54		31		52		1
55		31		53		1
56		7		6		ar
57		7		36		1
58		6		27		1
59		27		46		1
60		27		47		1
61		27		48		1

