@<TRIPOS>MOLECULE
GSX-2011-BMC-5117-10q
 40 42 0 0 0
SMALL
MULLIKEN_CHARGES
****
Gaussian 16 #p B3LYP/6-31G* opt
@<TRIPOS>ATOM
1		C		-0.1276		3.3695		-0.4672		C.3		1		UNL1		-0.5146
2		C		-0.2071		1.8704		-0.5654		C.ar		1		UNL1		0.3413
3		C		-1.4065		1.2057		-0.8133		C.ar		1		UNL1		-0.2257
4		C		-1.3612		-0.1900		-0.8812		C.ar		1		UNL1		0.3342
5		C		-2.5872		-1.0605		-1.1988		C.3		1		UNL1		0.0153
6		O		-2.2940		-2.4213		-0.9763		O.3		1		UNL1		-0.6451
7		C		-3.8119		-0.6452		-0.3986		C.ar		1		UNL1		0.1614
8		C		-4.7958		0.1720		-0.9633		C.ar		1		UNL1		-0.1954
9		C		-5.9049		0.5812		-0.2196		C.ar		1		UNL1		-0.1989
10		C		-6.0164		0.1487		1.0953		C.ar		1		UNL1		0.3809
11		F		-7.0863		0.5327		1.8229		F		1		UNL1		-0.2964
12		C		-5.0630		-0.6778		1.6827		C.ar		1		UNL1		-0.1970
13		C		-3.9613		-1.0715		0.9274		C.ar		1		UNL1		-0.1636
14		N		-0.2223		-0.8595		-0.7165		N.ar		1		UNL1		-0.6139
15		C		0.8891		-0.1279		-0.4752		C.ar		1		UNL1		0.7066
16		N		2.0231		-0.8934		-0.3096		N.pl3		1		UNL1		-0.7707
17		C		3.3545		-0.5603		-0.0502		C.ar		1		UNL1		0.3819
18		C		3.8288		0.7548		0.1074		C.ar		1		UNL1		-0.1590
19		C		5.1765		0.9759		0.3635		C.ar		1		UNL1		-0.1532
20		C		6.0823		-0.0921		0.4694		C.ar		1		UNL1		0.1322
21		C		7.4676		0.1509		0.7334		C.1		1		UNL1		0.2282
22		N		8.5947		0.3477		0.9480		N.1		1		UNL1		-0.4829
23		C		5.6058		-1.4055		0.3118		C.ar		1		UNL1		-0.1400
24		C		4.2636		-1.6323		0.0563		C.ar		1		UNL1		-0.2060
25		N		0.9493		1.2020		-0.3948		N.ar		1		UNL1		-0.5324
26		H		0.5776		3.7590		-1.2099		H		1		UNL1		0.1816
27		H		0.2502		3.6628		0.5188		H		1		UNL1		0.1831
28		H		-1.1024		3.8383		-0.6246		H		1		UNL1		0.1626
29		H		-2.3379		1.7459		-0.9325		H		1		UNL1		0.1518
30		H		-2.8083		-0.8917		-2.2686		H		1		UNL1		0.1511
31		H		-1.3191		-2.4695		-0.9122		H		1		UNL1		0.4091
32		H		-4.7071		0.4857		-2.0011		H		1		UNL1		0.1351
33		H		-6.6789		1.2102		-0.6468		H		1		UNL1		0.1486
34		H		-5.1964		-1.0027		2.7095		H		1		UNL1		0.1501
35		H		-3.2155		-1.7333		1.3556		H		1		UNL1		0.1520
36		H		1.8267		-1.8820		-0.3980		H		1		UNL1		0.3443
37		H		3.1376		1.5809		0.0272		H		1		UNL1		0.1865
38		H		5.5363		1.9928		0.4841		H		1		UNL1		0.1589
39		H		6.2930		-2.2416		0.3908		H		1		UNL1		0.1599
40		H		3.9069		-2.6527		-0.0638		H		1		UNL1		0.1381
@<TRIPOS>BOND
1		30		5		1
2		32		8		1
3		26		1		1
4		5		6		1
5		5		4		1
6		5		7		1
7		6		31		1
8		8		7		ar
9		8		9		ar
10		29		3		1
11		4		3		ar
12		4		14		ar
13		3		2		ar
14		14		15		ar
15		33		9		1
16		28		1		1
17		2		1		1
18		2		25		ar
19		15		25		ar
20		15		16		1
21		1		27		1
22		7		13		ar
23		36		16		1
24		16		17		1
25		9		10		ar
26		40		24		1
27		17		24		ar
28		17		18		ar
29		37		18		1
30		24		23		ar
31		18		19		ar
32		23		39		1
33		23		20		ar
34		19		20		ar
35		19		38		1
36		20		21		1
37		21		22		3
38		13		35		1
39		13		12		ar
40		10		12		ar
41		10		11		1
42		12		34		1

