@<TRIPOS>MOLECULE
GSX-2019-EJMC277-11-34d
 39 41 0 0 0
SMALL
MULLIKEN_CHARGES

@<TRIPOS>ATOM
1		C		0.7052		3.8969		0.4730		C.ar		1		UNL1		-0.1479
2		C		-0.6486		3.6559		0.6400		C.ar		1		UNL1		-0.1515
3		C		-1.1249		2.3752		0.3332		C.ar		1		UNL1		0.3663
4		C		-0.2734		1.3380		-0.1323		C.ar		1		UNL1		0.0861
5		C		1.0993		1.6018		-0.2995		C.ar		1		UNL1		-0.1866
6		C		1.5555		2.8720		0.0071		C.ar		1		UNL1		-0.0805
7		N		-2.3939		1.8634		0.3935		N.ar		1		UNL1		-0.7218
8		C		-2.4196		0.5538		-0.0027		C.ar		1		UNL1		0.2572
9		C		-1.1121		0.1796		-0.3252		C.ar		1		UNL1		-0.3138
10		S		-0.5021		-1.3334		-1.0307		S.O2		1		UNL1		1.2089
11		O		0.0021		-1.0029		-2.3694		O.2		1		UNL1		-0.5283
12		O		-1.5466		-2.3820		-0.9196		O.2		1		UNL1		-0.5972
13		C		0.8773		-1.8449		0.0407		C.ar		1		UNL1		-0.2802
14		C		2.1673		-2.0465		-0.5123		C.ar		1		UNL1		0.1427
15		C		3.1807		-2.4630		0.3640		C.ar		1		UNL1		-0.1791
16		C		2.9416		-2.6832		1.7141		C.ar		1		UNL1		-0.1062
17		C		1.6616		-2.5045		2.2251		C.ar		1		UNL1		-0.1754
18		C		0.6025		-2.0911		1.4097		C.ar		1		UNL1		0.1753
19		C		-3.8148		-0.0176		0.0391		C.2		1		UNL1		0.5718
20		O		-4.7136		0.7195		0.4541		O.2		1		UNL1		-0.5474
21		N		-4.0129		-1.2787		-0.3812		N.am		1		UNL1		-0.7895
22		CL		3.2671		3.2366		-0.1908		Cl		1		UNL1		-0.0249
23		C		-0.7546		-1.9333		2.0621		C.3		1		UNL1		-0.5572
24		C		2.5577		-1.8773		-1.9681		C.3		1		UNL1		-0.5118
25		H		1.1216		4.8728		0.6958		H		1		UNL1		0.1592
26		H		-1.3149		4.4364		0.9945		H		1		UNL1		0.1494
27		H		1.7858		0.8455		-0.6571		H		1		UNL1		0.1729
28		H		-3.2618		2.3093		0.6711		H		1		UNL1		0.3615
29		H		4.1771		-2.6212		-0.0385		H		1		UNL1		0.1386
30		H		3.7497		-3.0050		2.3653		H		1		UNL1		0.1438
31		H		1.4659		-2.6928		3.2770		H		1		UNL1		0.1364
32		H		-4.9611		-1.6261		-0.3544		H		1		UNL1		0.3455
33		H		-3.2483		-1.8629		-0.7182		H		1		UNL1		0.4155
34		H		-0.7407		-2.3971		3.0522		H		1		UNL1		0.1596
35		H		-1.5501		-2.3978		1.4765		H		1		UNL1		0.1994
36		H		-1.0151		-0.8776		2.1962		H		1		UNL1		0.1803
37		H		2.4157		-0.8543		-2.3251		H		1		UNL1		0.1903
38		H		1.9643		-2.5132		-2.6292		H		1		UNL1		0.1905
39		H		3.6125		-2.1417		-2.0869		H		1		UNL1		0.1480
@<TRIPOS>BOND
1		38		24		1
2		11		10		2
3		37		24		1
4		39		24		1
5		24		14		1
6		10		12		2
7		10		9		1
8		10		13		1
9		33		21		1
10		27		5		1
11		14		13		ar
12		14		15		ar
13		21		32		1
14		21		19		1
15		9		4		ar
16		9		8		ar
17		5		4		ar
18		5		6		ar
19		22		6		1
20		4		3		ar
21		29		15		1
22		8		19		1
23		8		7		ar
24		6		1		ar
25		19		20		2
26		13		18		ar
27		3		7		ar
28		3		2		ar
29		15		16		ar
30		7		28		1
31		1		2		ar
32		1		25		1
33		2		26		1
34		18		23		1
35		18		17		ar
36		35		23		1
37		16		17		ar
38		16		30		1
39		23		36		1
40		23		34		1
41		17		31		1

