@<TRIPOS>MOLECULE
GSX-2011-BMC-5117-10s
 40 42 0 0 0
SMALL
MULLIKEN_CHARGES
****
Gaussian 16 #p B3LYP/6-31G* opt
@<TRIPOS>ATOM
1		C		-2.4226		2.5089		-0.8072		C.3		1		UNL1		-0.5457
2		C		-1.1982		1.7337		-0.3997		C.ar		1		UNL1		0.1240
3		C		0.0680		2.0615		-0.8811		C.ar		1		UNL1		0.0198
4		N		1.1963		1.4147		-0.5659		N.ar		1		UNL1		-0.4758
5		C		1.0559		0.3895		0.2777		C.ar		1		UNL1		0.7030
6		N		2.1468		-0.3541		0.6746		N.pl3		1		UNL1		-0.7678
7		C		3.5048		-0.2708		0.3591		C.ar		1		UNL1		0.3822
8		C		4.0607		0.6821		-0.5140		C.ar		1		UNL1		-0.1597
9		C		5.4280		0.6757		-0.7614		C.ar		1		UNL1		-0.1530
10		C		6.2735		-0.2674		-0.1549		C.ar		1		UNL1		0.1319
11		C		7.6798		-0.2625		-0.4197		C.1		1		UNL1		0.2282
12		N		8.8239		-0.2598		-0.6346		N.1		1		UNL1		-0.4830
13		C		5.7154		-1.2183		0.7179		C.ar		1		UNL1		-0.1399
14		C		4.3534		-1.2173		0.9685		C.ar		1		UNL1		-0.2065
15		N		-0.1099		-0.0203		0.8193		N.ar		1		UNL1		-0.6084
16		C		-1.2196		0.6389		0.4870		C.ar		1		UNL1		0.2784
17		C		-2.4959		0.1091		1.1455		C.3		1		UNL1		-0.0040
18		O		-2.1858		-0.7462		2.2258		O.3		1		UNL1		-0.6291
19		C		-3.3751		-0.6216		0.1247		C.ar		1		UNL1		0.1842
20		C		-2.8267		-1.6925		-0.5977		C.ar		1		UNL1		-0.1678
21		C		-3.5838		-2.4343		-1.4984		C.ar		1		UNL1		-0.1252
22		C		-4.9298		-2.1184		-1.6952		C.ar		1		UNL1		-0.1248
23		C		-5.5059		-1.0673		-0.9871		C.ar		1		UNL1		-0.1261
24		C		-4.7293		-0.3334		-0.0867		C.ar		1		UNL1		-0.1467
25		CL		-5.5372		0.9738		0.7873		Cl		1		UNL1		-0.0192
26		H		-2.1431		3.3680		-1.4252		H		1		UNL1		0.1631
27		H		-2.9767		2.8869		0.0597		H		1		UNL1		0.1801
28		H		-3.1196		1.8919		-1.3858		H		1		UNL1		0.1846
29		H		0.1854		2.9030		-1.5633		H		1		UNL1		0.1524
30		H		1.8899		-1.0890		1.3207		H		1		UNL1		0.3436
31		H		3.4175		1.4117		-0.9840		H		1		UNL1		0.1899
32		H		5.8507		1.4136		-1.4360		H		1		UNL1		0.1596
33		H		6.3554		-1.9534		1.1949		H		1		UNL1		0.1597
34		H		3.9335		-1.9576		1.6457		H		1		UNL1		0.1376
35		H		-3.0544		0.9652		1.5382		H		1		UNL1		0.1656
36		H		-1.2384		-0.9631		2.1206		H		1		UNL1		0.4083
37		H		-1.7819		-1.9431		-0.4354		H		1		UNL1		0.1444
38		H		-3.1278		-3.2561		-2.0430		H		1		UNL1		0.1407
39		H		-5.5341		-2.6889		-2.3948		H		1		UNL1		0.1439
40		H		-6.5518		-0.8125		-1.1207		H		1		UNL1		0.1576
@<TRIPOS>BOND
1		39		22		1
2		38		21		1
3		22		21		ar
4		22		23		ar
5		29		3		1
6		21		20		ar
7		32		9		1
8		26		1		1
9		28		1		1
10		40		23		1
11		23		24		ar
12		31		8		1
13		3		4		ar
14		3		2		ar
15		1		2		1
16		1		27		1
17		9		8		ar
18		9		10		ar
19		12		11		3
20		20		37		1
21		20		19		ar
22		4		5		ar
23		8		7		ar
24		11		10		1
25		2		16		ar
26		10		13		ar
27		24		19		ar
28		24		25		1
29		19		17		1
30		5		6		1
31		5		15		ar
32		7		6		1
33		7		14		ar
34		16		15		ar
35		16		17		1
36		6		30		1
37		13		14		ar
38		13		33		1
39		14		34		1
40		17		35		1
41		17		18		1
42		36		18		1

