@<TRIPOS>MOLECULE
GSX-2011-BMC-7093-1b
 37 39 0 0 0
SMALL
MULLIKEN_CHARGES
****
Gaussian 16 #p B3LYP/6-31G* opt
@<TRIPOS>ATOM
1		N		-8.1491		0.2381		0.1222		N.1		1		UNL1		-0.4869
2		C		-6.9954		0.0825		0.1017		C.1		1		UNL1		0.2262
3		C		-5.5780		-0.1101		0.0769		C.ar		1		UNL1		0.1303
4		C		-4.7085		0.9853		-0.0546		C.ar		1		UNL1		-0.1537
5		C		-3.3304		0.8130		-0.0801		C.ar		1		UNL1		-0.1597
6		C		-2.7848		-0.4803		0.0269		C.ar		1		UNL1		0.3833
7		N		-1.4200		-0.7643		0.0124		N.pl3		1		UNL1		-0.7649
8		C		-0.3011		0.0367		-0.1009		C.ar		1		UNL1		0.6960
9		N		-0.4345		1.3651		-0.2251		N.ar		1		UNL1		-0.4865
10		C		0.7199		2.0358		-0.3224		C.ar		1		UNL1		0.0650
11		C		1.9717		1.4398		-0.3013		C.ar		1		UNL1		-0.2278
12		C		1.9760		0.0357		-0.1724		C.ar		1		UNL1		0.5560
13		O		3.0794		-0.7321		-0.1453		O.2		1		UNL1		-0.4906
14		C		4.3850		-0.1460		-0.2723		C.3		1		UNL1		0.1294
15		C		4.9435		0.4344		1.0351		C.3		1		UNL1		-0.2975
16		C		6.4662		0.4760		0.7888		C.3		1		UNL1		-0.2795
17		C		6.7614		-0.6671		-0.2344		C.3		1		UNL1		-0.2828
18		C		5.3844		-1.2513		-0.6285		C.3		1		UNL1		-0.2887
19		N		0.8482		-0.6597		-0.0715		N.ar		1		UNL1		-0.5497
20		C		-3.6583		-1.5799		0.1590		C.ar		1		UNL1		-0.2059
21		C		-5.0311		-1.4013		0.1838		C.ar		1		UNL1		-0.1408
22		H		-5.1219		1.9856		-0.1377		H		1		UNL1		0.1563
23		H		-2.6673		1.6599		-0.1815		H		1		UNL1		0.1888
24		H		-1.1678		-1.7409		0.0975		H		1		UNL1		0.3480
25		H		0.6321		3.1166		-0.4204		H		1		UNL1		0.1526
26		H		2.8726		2.0331		-0.3715		H		1		UNL1		0.1472
27		H		4.3629		0.6146		-1.0640		H		1		UNL1		0.1384
28		H		4.6950		-0.2655		1.8425		H		1		UNL1		0.1573
29		H		4.5220		1.4084		1.3022		H		1		UNL1		0.1468
30		H		6.7559		1.4454		0.3675		H		1		UNL1		0.1436
31		H		7.0283		0.3595		1.7202		H		1		UNL1		0.1499
32		H		7.4094		-1.4395		0.1905		H		1		UNL1		0.1499
33		H		7.2832		-0.2697		-1.1114		H		1		UNL1		0.1456
34		H		5.1401		-2.1290		-0.0189		H		1		UNL1		0.1601
35		H		5.3206		-1.5532		-1.6781		H		1		UNL1		0.1515
36		H		-3.2472		-2.5833		0.2424		H		1		UNL1		0.1365
37		H		-5.6890		-2.2584		0.2860		H		1		UNL1		0.1564
@<TRIPOS>BOND
1		35		18		1
2		33		17		1
3		27		14		1
4		18		14		1
5		18		17		1
6		18		34		1
7		25		10		1
8		26		11		1
9		10		11		ar
10		10		9		ar
11		11		12		ar
12		14		13		1
13		14		15		1
14		17		32		1
15		17		16		1
16		9		8		ar
17		23		5		1
18		12		13		1
19		12		19		ar
20		22		4		1
21		8		19		ar
22		8		7		1
23		5		4		ar
24		5		6		ar
25		4		3		ar
26		7		6		1
27		7		24		1
28		6		20		ar
29		3		2		1
30		3		21		ar
31		2		1		3
32		20		21		ar
33		20		36		1
34		21		37		1
35		30		16		1
36		16		15		1
37		16		31		1
38		15		29		1
39		15		28		1

