@<TRIPOS>MOLECULE
GSX-2019-EJMC277-11-34h
 54 57 0 0 0
SMALL
MULLIKEN_CHARGES
****
Gaussian 16 #p B3LYP/6-31G* opt
@<TRIPOS>ATOM
1		C		4.8298		-1.9990		-1.2933		C.ar		1		UNL1		-0.1455
2		C		3.6340		-2.6003		-1.6496		C.ar		1		UNL1		-0.1542
3		C		2.4705		-2.1673		-1.0018		C.ar		1		UNL1		0.3685
4		C		2.4855		-1.1532		-0.0074		C.ar		1		UNL1		0.0721
5		C		3.7114		-0.5610		0.3527		C.ar		1		UNL1		-0.1918
6		C		4.8509		-0.9941		-0.3027		C.ar		1		UNL1		-0.0783
7		N		1.1701		-2.5764		-1.1487		N.ar		1		UNL1		-0.7212
8		C		0.3365		-1.8863		-0.3130		C.ar		1		UNL1		0.2531
9		C		1.1168		-0.9872		0.4216		C.ar		1		UNL1		-0.2920
10		S		0.6276		0.2864		1.5539		S.O2		1		UNL1		1.1744
11		O		1.7553		0.5221		2.4662		O.2		1		UNL1		-0.5477
12		O		-0.6995		-0.0594		2.1198		O.2		1		UNL1		-0.5964
13		C		0.4139		1.7615		0.5445		C.ar		1		UNL1		-0.1310
14		C		1.3851		2.7561		0.6069		C.ar		1		UNL1		-0.1969
15		C		1.2300		3.9169		-0.1642		C.ar		1		UNL1		0.1811
16		C		0.0961		4.0301		-0.9739		C.ar		1		UNL1		-0.2226
17		C		-0.8873		3.0307		-1.0406		C.ar		1		UNL1		0.1784
18		C		-0.7198		1.8825		-0.2629		C.ar		1		UNL1		-0.2046
19		C		-1.0998		-2.3163		-0.4536		C.2		1		UNL1		0.5923
20		O		-1.3767		-3.0711		-1.3926		O.2		1		UNL1		-0.5596
21		N		-1.9848		-1.8795		0.4648		N.am		1		UNL1		-0.6547
22		CL		6.4032		-0.2744		0.1156		Cl		1		UNL1		-0.0255
23		C		-3.4041		-2.2320		0.4142		C.3		1		UNL1		-0.0699
24		C		-4.2644		-1.0183		0.0800		C.ar		1		UNL1		0.2017
25		C		-4.1641		0.1811		0.7969		C.ar		1		UNL1		-0.2066
26		C		-4.9954		1.2468		0.4524		C.ar		1		UNL1		0.0306
27		N		-5.8998		1.2038		-0.5362		N.ar		1		UNL1		-0.4096
28		C		-5.9927		0.0535		-1.2135		C.ar		1		UNL1		0.0387
29		C		-5.2091		-1.0710		-0.9477		C.ar		1		UNL1		-0.1916
30		C		-2.0890		3.1864		-1.9434		C.3		1		UNL1		-0.5385
31		C		2.2708		5.0110		-0.1126		C.3		1		UNL1		-0.5309
32		C		-3.8370		-2.8872		1.7363		C.3		1		UNL1		-0.4454
33		H		5.7579		-2.2981		-1.7673		H		1		UNL1		0.1586
34		H		3.6039		-3.3793		-2.4053		H		1		UNL1		0.1480
35		H		3.7620		0.1912		1.1290		H		1		UNL1		0.1922
36		H		0.7797		-3.2660		-1.7813		H		1		UNL1		0.3598
37		H		2.2389		2.6337		1.2655		H		1		UNL1		0.1745
38		H		-0.0337		4.9308		-1.5707		H		1		UNL1		0.1291
39		H		-1.4731		1.1008		-0.2764		H		1		UNL1		0.1611
40		H		-1.6398		-1.2942		1.2267		H		1		UNL1		0.4156
41		H		-3.4976		-2.9580		-0.3965		H		1		UNL1		0.1845
42		H		-3.4447		0.2997		1.6029		H		1		UNL1		0.1615
43		H		-4.9313		2.1858		1.0001		H		1		UNL1		0.1473
44		H		-6.7283		0.0289		-2.0162		H		1		UNL1		0.1438
45		H		-5.3306		-1.9723		-1.5431		H		1		UNL1		0.1416
46		H		-1.8754		2.8066		-2.9512		H		1		UNL1		0.1722
47		H		-2.3760		4.2379		-2.0468		H		1		UNL1		0.1629
48		H		-2.9538		2.6342		-1.5628		H		1		UNL1		0.1793
49		H		3.2245		4.6709		-0.5349		H		1		UNL1		0.1740
50		H		2.4687		5.3238		0.9192		H		1		UNL1		0.1720
51		H		1.9517		5.8923		-0.6770		H		1		UNL1		0.1599
52		H		-4.8952		-3.1651		1.6947		H		1		UNL1		0.1606
53		H		-3.7017		-2.2015		2.5804		H		1		UNL1		0.1606
54		H		-3.2442		-3.7880		1.9241		H		1		UNL1		0.1648
@<TRIPOS>BOND
1		46		30		1
2		34		2		1
3		47		30		1
4		44		28		1
5		30		48		1
6		30		17		1
7		36		7		1
8		33		1		1
9		2		1		ar
10		2		3		ar
11		38		16		1
12		45		29		1
13		20		19		2
14		1		6		ar
15		28		29		ar
16		28		27		ar
17		7		3		ar
18		7		8		ar
19		17		16		ar
20		17		18		ar
21		3		4		ar
22		16		15		ar
23		29		24		ar
24		51		31		1
25		27		26		ar
26		49		31		1
27		19		8		1
28		19		21		1
29		41		23		1
30		8		9		ar
31		6		22		1
32		6		5		ar
33		39		18		1
34		18		13		ar
35		15		31		1
36		15		14		ar
37		31		50		1
38		4		5		ar
39		4		9		ar
40		24		23		1
41		24		25		ar
42		5		35		1
43		23		21		1
44		23		32		1
45		9		10		1
46		26		25		ar
47		26		43		1
48		21		40		1
49		13		14		ar
50		13		10		1
51		14		37		1
52		25		42		1
53		10		12		2
54		10		11		2
55		52		32		1
56		32		54		1
57		32		53		1

