@<TRIPOS>MOLECULE
GSX-2011-BMC-5117-10v
 40 42 0 0 0
SMALL
MULLIKEN_CHARGES
****
Gaussian 16 #p B3LYP/6-31G* opt
@<TRIPOS>ATOM
1		C		-3.1969		2.7160		0.1772		C.3		1		UNL1		-0.5319
2		C		-1.7395		2.3904		-0.0268		C.ar		1		UNL1		0.1121
3		C		-0.9220		3.2237		-0.8013		C.ar		1		UNL1		0.0190
4		N		0.3666		3.0037		-1.0474		N.ar		1		UNL1		-0.4791
5		C		0.8793		1.8885		-0.4959		C.ar		1		UNL1		0.6828
6		N		2.2163		1.6963		-0.7865		N.pl3		1		UNL1		-0.7660
7		C		3.1289		0.7037		-0.4353		C.ar		1		UNL1		0.3835
8		C		4.4397		0.8411		-0.9385		C.ar		1		UNL1		-0.2052
9		C		5.4181		-0.0933		-0.6445		C.ar		1		UNL1		-0.1404
10		C		5.1168		-1.2021		0.1667		C.ar		1		UNL1		0.1308
11		C		6.1226		-2.1715		0.4753		C.1		1		UNL1		0.2270
12		N		6.9418		-2.9597		0.7263		N.1		1		UNL1		-0.4845
13		C		3.8121		-1.3397		0.6680		C.ar		1		UNL1		-0.1537
14		C		2.8261		-0.4054		0.3768		C.ar		1		UNL1		-0.1640
15		N		0.2149		1.0160		0.2717		N.ar		1		UNL1		-0.5560
16		C		-1.0848		1.2649		0.5031		C.ar		1		UNL1		0.2642
17		C		-1.7763		0.2241		1.3871		C.3		1		UNL1		0.0259
18		O		-2.4927		0.8327		2.4586		O.3		1		UNL1		-0.6311
19		C		-2.7322		-0.6630		0.5979		C.ar		1		UNL1		0.1038
20		C		-2.2718		-1.3334		-0.5443		C.ar		1		UNL1		-0.1730
21		C		-3.1124		-2.1783		-1.2656		C.ar		1		UNL1		-0.2009
22		C		-4.4229		-2.3455		-0.8305		C.ar		1		UNL1		0.3830
23		F		-5.2439		-3.1607		-1.5257		F		1		UNL1		-0.2970
24		C		-4.9082		-1.6990		0.2984		C.ar		1		UNL1		-0.1992
25		C		-4.0537		-0.8573		1.0133		C.ar		1		UNL1		-0.1762
26		H		-3.4305		2.8827		1.2323		H		1		UNL1		0.1799
27		H		-3.8416		1.8979		-0.1616		H		1		UNL1		0.1801
28		H		-3.4662		3.6152		-0.3868		H		1		UNL1		0.1519
29		H		-1.3434		4.1231		-1.2508		H		1		UNL1		0.1503
30		H		2.5727		2.4394		-1.3744		H		1		UNL1		0.3478
31		H		4.6853		1.6939		-1.5671		H		1		UNL1		0.1380
32		H		6.4214		0.0279		-1.0400		H		1		UNL1		0.1585
33		H		3.5703		-2.1924		1.2949		H		1		UNL1		0.1574
34		H		1.8256		-0.5191		0.7674		H		1		UNL1		0.1821
35		H		-0.9705		-0.4075		1.7878		H		1		UNL1		0.1605
36		H		-1.8418		1.2574		3.0383		H		1		UNL1		0.4045
37		H		-1.2446		-1.1979		-0.8722		H		1		UNL1		0.1503
38		H		-2.7682		-2.7040		-2.1501		H		1		UNL1		0.1503
39		H		-5.9361		-1.8585		0.6076		H		1		UNL1		0.1490
40		H		-4.4111		-0.3505		1.9019		H		1		UNL1		0.1655
@<TRIPOS>BOND
1		38		21		1
2		31		8		1
3		23		22		1
4		30		6		1
5		21		22		ar
6		21		20		ar
7		29		3		1
8		4		3		ar
9		4		5		ar
10		32		9		1
11		8		9		ar
12		8		7		ar
13		37		20		1
14		22		24		ar
15		3		2		ar
16		6		5		1
17		6		7		1
18		9		10		ar
19		20		19		ar
20		5		15		ar
21		7		14		ar
22		28		1		1
23		27		1		1
24		2		1		1
25		2		16		ar
26		10		11		1
27		10		13		ar
28		1		26		1
29		15		16		ar
30		24		39		1
31		24		25		ar
32		14		13		ar
33		14		34		1
34		11		12		3
35		16		17		1
36		19		25		ar
37		19		17		1
38		13		33		1
39		25		40		1
40		17		35		1
41		17		18		1
42		18		36		1

