@<TRIPOS>MOLECULE
GSX-2012-EJMC-229-3a-R
 37 39 0 0 0
SMALL
MULLIKEN_CHARGES
****
Gaussian 16 #p B3LYP/6-31G* opt
@<TRIPOS>ATOM
1		N		-6.4227		-1.9356		-0.0921		N.1		1		UNL1		-0.4864
2		C		-5.5214		-1.1998		-0.0469		C.1		1		UNL1		0.2261
3		C		-4.4126		-0.2974		0.0084		C.ar		1		UNL1		0.1313
4		C		-3.1151		-0.7396		-0.2980		C.ar		1		UNL1		-0.1570
5		C		-2.0282		0.1238		-0.2490		C.ar		1		UNL1		-0.1637
6		C		-2.2203		1.4699		0.1151		C.ar		1		UNL1		0.3812
7		N		-1.1995		2.4157		0.2016		N.pl3		1		UNL1		-0.7657
8		C		0.1587		2.3461		-0.0324		C.ar		1		UNL1		0.6874
9		N		0.8006		3.5096		0.2062		N.ar		1		UNL1		-0.4843
10		C		2.1138		3.4938		-0.0094		C.ar		1		UNL1		0.0742
11		C		2.8040		2.3621		-0.4466		C.ar		1		UNL1		-0.2086
12		C		2.0371		1.2173		-0.6530		C.ar		1		UNL1		0.3217
13		C		2.6603		-0.0723		-1.1964		C.3		1		UNL1		-0.0306
14		O		4.0769		-0.0675		-1.1030		O.3		1		UNL1		-0.6199
15		C		2.0194		-1.3407		-0.6410		C.ar		1		UNL1		0.2202
16		C		1.3040		-2.1817		-1.5031		C.ar		1		UNL1		-0.1965
17		C		0.7056		-3.3590		-1.0550		C.ar		1		UNL1		-0.1247
18		C		0.8198		-3.7263		0.2851		C.ar		1		UNL1		-0.1262
19		C		1.5316		-2.9147		1.1685		C.ar		1		UNL1		-0.1224
20		C		2.1160		-1.7416		0.6982		C.ar		1		UNL1		-0.1389
21		CL		3.0094		-0.7534		1.8668		Cl		1		UNL1		-0.0285
22		N		0.7126		1.2035		-0.4552		N.ar		1		UNL1		-0.5402
23		C		-3.5232		1.9139		0.4229		C.ar		1		UNL1		-0.2043
24		C		-4.6026		1.0480		0.3713		C.ar		1		UNL1		-0.1412
25		H		-2.9571		-1.7768		-0.5767		H		1		UNL1		0.1542
26		H		-1.0350		-0.2280		-0.4862		H		1		UNL1		0.1964
27		H		-1.4740		3.3416		0.5052		H		1		UNL1		0.3476
28		H		2.6387		4.4298		0.1759		H		1		UNL1		0.1559
29		H		3.8710		2.3661		-0.6258		H		1		UNL1		0.1593
30		H		2.4627		-0.0678		-2.2753		H		1		UNL1		0.1787
31		H		4.3094		-0.1269		-0.1609		H		1		UNL1		0.4088
32		H		1.2175		-1.8996		-2.5492		H		1		UNL1		0.1452
33		H		0.1587		-3.9873		-1.7518		H		1		UNL1		0.1460
34		H		0.3618		-4.6416		0.6484		H		1		UNL1		0.1490
35		H		1.6346		-3.1840		2.2142		H		1		UNL1		0.1613
36		H		-3.6827		2.9521		0.7050		H		1		UNL1		0.1373
37		H		-5.5985		1.4061		0.6112		H		1		UNL1		0.1574
@<TRIPOS>BOND
1		32		16		1
2		30		13		1
3		33		17		1
4		16		17		ar
5		16		15		ar
6		13		14		1
7		13		12		1
8		13		15		1
9		14		31		1
10		17		18		ar
11		12		22		ar
12		12		11		ar
13		15		20		ar
14		29		11		1
15		25		4		1
16		26		5		1
17		22		8		ar
18		11		10		ar
19		4		5		ar
20		4		3		ar
21		5		6		ar
22		1		2		3
23		2		3		1
24		8		7		1
25		8		9		ar
26		10		28		1
27		10		9		ar
28		3		24		ar
29		6		7		1
30		6		23		ar
31		7		27		1
32		18		34		1
33		18		19		ar
34		24		23		ar
35		24		37		1
36		23		36		1
37		20		19		ar
38		20		21		1
39		19		35		1

