@<TRIPOS>MOLECULE
GSX-2011-BMC-7093-1e
 43 45 0 0 0
SMALL
MULLIKEN_CHARGES

@<TRIPOS>ATOM
1		C		-0.4953		4.3051		0.1931		C.3		1		UNL1		-0.5139
2		C		0.0783		2.9174		0.0986		C.ar		1		UNL1		0.3454
3		C		1.4426		2.6869		0.0565		C.ar		1		UNL1		-0.2636
4		C		1.8530		1.3417		-0.0354		C.ar		1		UNL1		0.6063
5		O		3.1728		1.1138		-0.0900		O.3		1		UNL1		-0.5294
6		C		3.6660		-0.2477		-0.2137		C.3		1		UNL1		0.1431
7		C		3.7885		-0.9150		1.1551		C.3		1		UNL1		-0.2893
8		C		4.2454		-2.3862		0.9958		C.3		1		UNL1		-0.2702
9		C		5.1716		-2.5913		-0.2289		C.3		1		UNL1		-0.2695
10		C		5.9691		-1.3170		-0.5402		C.3		1		UNL1		-0.2715
11		C		5.0310		-0.1449		-0.9166		C.3		1		UNL1		-0.2850
12		N		0.9904		0.3347		-0.0752		N.ar		1		UNL1		-0.5885
13		C		-0.3172		0.6781		-0.0299		C.ar		1		UNL1		0.6977
14		N		-1.1567		-0.4195		-0.0793		N.pl3		1		UNL1		-0.7709
15		C		-2.5447		-0.5424		-0.0664		C.ar		1		UNL1		0.3837
16		C		-3.4388		0.5426		0.0056		C.ar		1		UNL1		-0.1594
17		C		-4.8082		0.3097		0.0108		C.ar		1		UNL1		-0.1541
18		C		-5.3267		-0.9944		-0.0544		C.ar		1		UNL1		0.1303
19		C		-6.7396		-1.2190		-0.0480		C.1		1		UNL1		0.2259
20		N		-7.8892		-1.4031		-0.0429		N.1		1		UNL1		-0.4869
21		C		-4.4320		-2.0770		-0.1260		C.ar		1		UNL1		-0.1409
22		C		-3.0659		-1.8515		-0.1318		C.ar		1		UNL1		-0.2064
23		N		-0.8207		1.9066		0.0550		N.ar		1		UNL1		-0.5476
24		H		-1.1457		4.5033		-0.6665		H		1		UNL1		0.1774
25		H		0.2882		5.0668		0.2258		H		1		UNL1		0.1583
26		H		-1.1155		4.3961		1.0920		H		1		UNL1		0.1775
27		H		2.1743		3.4846		0.0862		H		1		UNL1		0.1454
28		H		2.9493		-0.8038		-0.8238		H		1		UNL1		0.1561
29		H		2.8310		-0.8644		1.6822		H		1		UNL1		0.1543
30		H		4.5147		-0.3480		1.7515		H		1		UNL1		0.1418
31		H		4.7626		-2.6949		1.9120		H		1		UNL1		0.1413
32		H		3.3690		-3.0391		0.9035		H		1		UNL1		0.1383
33		H		4.5725		-2.8588		-1.1102		H		1		UNL1		0.1350
34		H		5.8475		-3.4361		-0.0527		H		1		UNL1		0.1386
35		H		6.5665		-1.0475		0.3409		H		1		UNL1		0.1391
36		H		6.6844		-1.4952		-1.3511		H		1		UNL1		0.1399
37		H		5.4888		0.8095		-0.6331		H		1		UNL1		0.1542
38		H		4.8753		-0.1095		-2.0014		H		1		UNL1		0.1432
39		H		-0.6357		-1.2846		-0.1404		H		1		UNL1		0.3421
40		H		-3.0452		1.5474		0.0560		H		1		UNL1		0.1871
41		H		-5.4916		1.1513		0.0661		H		1		UNL1		0.1560
42		H		-4.8159		-3.0909		-0.1769		H		1		UNL1		0.1559
43		H		-2.3841		-2.6972		-0.1875		H		1		UNL1		0.1335
@<TRIPOS>BOND
1		38		11		1
2		36		10		1
3		33		9		1
4		11		37		1
5		11		10		1
6		11		6		1
7		28		6		1
8		24		1		1
9		10		9		1
10		10		35		1
11		9		34		1
12		9		8		1
13		6		5		1
14		6		7		1
15		43		22		1
16		42		21		1
17		39		14		1
18		22		21		ar
19		22		15		ar
20		21		18		ar
21		5		4		1
22		14		15		1
23		14		13		1
24		12		4		ar
25		12		13		ar
26		15		16		ar
27		18		19		1
28		18		17		ar
29		19		20		3
30		4		3		ar
31		13		23		ar
32		16		17		ar
33		16		40		1
34		17		41		1
35		23		2		ar
36		3		27		1
37		3		2		ar
38		2		1		1
39		1		25		1
40		1		26		1
41		32		8		1
42		8		7		1
43		8		31		1
44		7		29		1
45		7		30		1

