@<TRIPOS>MOLECULE
GSX-2011-BMC-5117-10x
 43 45 0 0 0
SMALL
MULLIKEN_CHARGES
****
Gaussian 16 #p B3LYP/6-31G* opt
@<TRIPOS>ATOM
1		C		6.3511		-2.5664		-1.5382		C.3		1		UNL1		-0.5311
2		C		5.3891		-1.6650		-0.8002		C.ar		1		UNL1		0.1792
3		C		4.0915		-2.1033		-0.4888		C.ar		1		UNL1		-0.1763
4		C		3.2006		-1.2853		0.1974		C.ar		1		UNL1		-0.1712
5		C		3.5763		0.0053		0.5958		C.ar		1		UNL1		0.1856
6		C		2.6063		0.8876		1.3832		C.3		1		UNL1		-0.0036
7		O		2.2884		0.3147		2.6355		O.3		1		UNL1		-0.6316
8		C		1.3354		1.1539		0.5738		C.ar		1		UNL1		0.2809
9		N		0.2657		0.4689		0.9778		N.ar		1		UNL1		-0.6066
10		C		-0.8867		0.6365		0.2974		C.ar		1		UNL1		0.7027
11		N		-1.9343		-0.1182		0.7825		N.pl3		1		UNL1		-0.7676
12		C		-3.2659		-0.2428		0.3823		C.ar		1		UNL1		0.3826
13		C		-4.0700		-1.1278		1.1292		C.ar		1		UNL1		-0.2065
14		C		-5.4036		-1.3208		0.8097		C.ar		1		UNL1		-0.1401
15		C		-5.9775		-0.6307		-0.2728		C.ar		1		UNL1		0.1315
16		C		-7.3545		-0.8252		-0.6095		C.1		1		UNL1		0.2277
17		N		-8.4750		-0.9845		-0.8826		N.1		1		UNL1		-0.4839
18		C		-5.1765		0.2511		-1.0166		C.ar		1		UNL1		-0.1531
19		C		-3.8380		0.4492		-0.7011		C.ar		1		UNL1		-0.1598
20		N		-1.0549		1.4461		-0.7508		N.ar		1		UNL1		-0.4771
21		C		0.0314		2.1290		-1.1314		C.ar		1		UNL1		0.0198
22		C		1.2811		2.0387		-0.5222		C.ar		1		UNL1		0.1259
23		C		2.4557		2.8452		-1.0088		C.3		1		UNL1		-0.5478
24		C		4.8664		0.4445		0.2941		C.ar		1		UNL1		-0.1944
25		C		5.7596		-0.3791		-0.3968		C.ar		1		UNL1		-0.1842
26		H		5.9209		-2.9257		-2.4809		H		1		UNL1		0.1627
27		H		7.2858		-2.0475		-1.7729		H		1		UNL1		0.1563
28		H		6.6036		-3.4530		-0.9428		H		1		UNL1		0.1669
29		H		3.7789		-3.1012		-0.7894		H		1		UNL1		0.1254
30		H		2.2039		-1.6502		0.4320		H		1		UNL1		0.1328
31		H		3.1011		1.8515		1.5680		H		1		UNL1		0.1398
32		H		1.3735		-0.0155		2.5445		H		1		UNL1		0.4073
33		H		-1.6601		-0.6773		1.5799		H		1		UNL1		0.3432
34		H		-3.6375		-1.6671		1.9689		H		1		UNL1		0.1371
35		H		-6.0091		-2.0054		1.3946		H		1		UNL1		0.1589
36		H		-5.6116		0.7880		-1.8537		H		1		UNL1		0.1589
37		H		-3.2288		1.1298		-1.2780		H		1		UNL1		0.1897
38		H		-0.1091		2.7973		-1.9806		H		1		UNL1		0.1504
39		H		2.8617		3.4900		-0.2190		H		1		UNL1		0.1683
40		H		3.2742		2.2031		-1.3526		H		1		UNL1		0.1862
41		H		2.1585		3.4905		-1.8415		H		1		UNL1		0.1626
42		H		5.1852		1.4357		0.6098		H		1		UNL1		0.1275
43		H		6.7607		-0.0160		-0.6178		H		1		UNL1		0.1249
@<TRIPOS>BOND
1		26		1		1
2		38		21		1
3		36		18		1
4		41		23		1
5		27		1		1
6		1		28		1
7		1		2		1
8		40		23		1
9		37		19		1
10		21		20		ar
11		21		22		ar
12		18		19		ar
13		18		15		ar
14		23		22		1
15		23		39		1
16		17		16		3
17		2		3		ar
18		2		25		ar
19		29		3		1
20		20		10		ar
21		19		12		ar
22		43		25		1
23		16		15		1
24		22		8		ar
25		3		4		ar
26		25		24		ar
27		15		14		ar
28		4		30		1
29		4		5		ar
30		24		5		ar
31		24		42		1
32		10		11		1
33		10		9		ar
34		12		11		1
35		12		13		ar
36		8		9		ar
37		8		6		1
38		5		6		1
39		11		33		1
40		14		13		ar
41		14		35		1
42		13		34		1
43		6		31		1
44		6		7		1
45		32		7		1

