@<TRIPOS>MOLECULE
GSX-2011-BMC-4220-12o
 56 59 0 0 0
SMALL
MULLIKEN_CHARGES
****
Gaussian 16 #p B3LYP/6-31G* opt
@<TRIPOS>ATOM
1		C		2.0693		-0.6110		1.3303		C.3		1		UNL1		-0.5724
2		C		3.2104		-0.5765		0.3406		C.ar		1		UNL1		0.1535
3		C		4.4717		-1.0414		0.7065		C.ar		1		UNL1		-0.2115
4		C		5.5383		-0.9958		-0.1923		C.ar		1		UNL1		-0.1246
5		S		7.1402		-1.6028		0.3181		S.O2		1		UNL1		1.1653
6		N		7.0279		-3.2816		0.0577		N.3		1		UNL1		-0.8147
7		O		8.1360		-1.0550		-0.6093		O.2		1		UNL1		-0.5288
8		O		7.2536		-1.4385		1.7710		O.2		1		UNL1		-0.5441
9		C		5.3716		-0.4718		-1.4714		C.ar		1		UNL1		-0.1656
10		C		4.1199		-0.0048		-1.8627		C.ar		1		UNL1		-0.1557
11		C		3.0412		-0.0597		-0.9675		C.ar		1		UNL1		0.2952
12		N		1.7558		0.3939		-1.3233		N.am		1		UNL1		-0.7265
13		C		1.3391		0.9920		-2.4830		C.2		1		UNL1		0.5848
14		O		2.0238		1.2478		-3.4619		O.2		1		UNL1		-0.4922
15		C		-0.1700		1.2826		-2.5084		C.3		1		UNL1		-0.1460
16		O		-0.7650		1.3743		-1.2181		O.3		1		UNL1		-0.5423
17		C		-0.6426		2.5448		-0.5088		C.ar		1		UNL1		0.3633
18		C		0.0137		3.6978		-0.9431		C.ar		1		UNL1		-0.1974
19		C		0.0699		4.8306		-0.1244		C.ar		1		UNL1		-0.2024
20		C		-0.5299		4.7932		1.1250		C.ar		1		UNL1		0.3871
21		F		-0.4779		5.8800		1.9192		F		1		UNL1		-0.2923
22		C		-1.1846		3.6559		1.5895		C.ar		1		UNL1		-0.2600
23		C		-1.2365		2.5358		0.7690		C.ar		1		UNL1		0.2867
24		O		-1.7740		1.3674		1.2781		O.3		1		UNL1		-0.5680
25		C		-2.8802		0.8023		0.6970		C.ar		1		UNL1		0.3726
26		C		-3.8370		1.5821		0.0026		C.ar		1		UNL1		-0.1686
27		C		-4.9607		0.9918		-0.5167		C.ar		1		UNL1		-0.1940
28		C		-5.1925		-0.4007		-0.3653		C.ar		1		UNL1		0.1453
29		C		-6.3504		-1.0136		-0.8990		C.ar		1		UNL1		-0.2178
30		C		-6.5690		-2.3726		-0.7485		C.ar		1		UNL1		0.1366
31		C		-7.7460		-2.9806		-1.2951		C.1		1		UNL1		0.2353
32		N		-8.6992		-3.4802		-1.7373		N.1		1		UNL1		-0.4753
33		C		-5.6182		-3.1672		-0.0475		C.ar		1		UNL1		-0.1400
34		C		-4.4875		-2.5949		0.4802		C.ar		1		UNL1		-0.1966
35		C		-4.2334		-1.2021		0.3432		C.ar		1		UNL1		0.1123
36		C		-3.0774		-0.5568		0.8622		C.ar		1		UNL1		-0.0642
37		BR		-1.7499		-1.5547		1.8026		Br		1		UNL1		-0.0928
38		H		1.2204		-1.2141		0.9815		H		1		UNL1		0.1765
39		H		1.6824		0.3938		1.5471		H		1		UNL1		0.1760
40		H		2.4001		-1.0406		2.2796		H		1		UNL1		0.1760
41		H		4.6322		-1.4272		1.7081		H		1		UNL1		0.1694
42		H		7.3835		-3.7551		0.8867		H		1		UNL1		0.3565
43		H		7.5733		-3.5381		-0.7634		H		1		UNL1		0.3522
44		H		6.2152		-0.4165		-2.1506		H		1		UNL1		0.1793
45		H		3.9683		0.4085		-2.8499		H		1		UNL1		0.1960
46		H		1.0268		0.2751		-0.6303		H		1		UNL1		0.3681
47		H		-0.3432		2.1777		-3.1120		H		1		UNL1		0.1861
48		H		-0.6743		0.4429		-2.9965		H		1		UNL1		0.2031
49		H		0.5085		3.7236		-1.9071		H		1		UNL1		0.1728
50		H		0.5836		5.7284		-0.4497		H		1		UNL1		0.1632
51		H		-1.6344		3.6323		2.5754		H		1		UNL1		0.1718
52		H		-3.6663		2.6480		-0.1044		H		1		UNL1		0.1622
53		H		-5.6943		1.5921		-1.0475		H		1		UNL1		0.1530
54		H		-7.0730		-0.4035		-1.4326		H		1		UNL1		0.1633
55		H		-5.7985		-4.2311		0.0655		H		1		UNL1		0.1633
56		H		-3.7697		-3.2075		1.0129		H		1		UNL1		0.1675
@<TRIPOS>BOND
1		14		13		2
2		47		15		1
3		48		15		1
4		45		10		1
5		15		13		1
6		15		16		1
7		13		12		1
8		44		9		1
9		49		18		1
10		10		9		ar
11		10		11		ar
12		32		31		3
13		9		4		ar
14		54		29		1
15		12		11		1
16		12		46		1
17		31		30		1
18		16		17		1
19		53		27		1
20		11		2		ar
21		18		17		ar
22		18		19		ar
23		29		30		ar
24		29		28		ar
25		43		6		1
26		30		33		ar
27		7		5		2
28		27		28		ar
29		27		26		ar
30		17		23		ar
31		50		19		1
32		28		35		ar
33		4		5		1
34		4		3		ar
35		19		20		ar
36		52		26		1
37		33		55		1
38		33		34		ar
39		26		25		ar
40		6		5		1
41		6		42		1
42		5		8		2
43		2		3		ar
44		2		1		1
45		35		34		ar
46		35		36		ar
47		34		56		1
48		25		36		ar
49		25		24		1
50		3		41		1
51		23		24		1
52		23		22		ar
53		36		37		1
54		38		1		1
55		20		22		ar
56		20		21		1
57		1		39		1
58		1		40		1
59		22		51		1

