@<TRIPOS>MOLECULE
GSX-2019-EJMC277-5-15b3
 60 63 0 0 0
SMALL
MULLIKEN_CHARGES

@<TRIPOS>ATOM
1		C		4.1025		4.4276		-0.2253		C.3		1		UNL1		-0.5343
2		C		2.1310		3.1936		-1.2274		C.ar		1		UNL1		-0.2767
3		C		0.9703		2.4182		-1.1330		C.ar		1		UNL1		0.1930
4		C		0.5813		2.0029		0.1429		C.ar		1		UNL1		0.2006
5		C		1.2771		2.3436		1.3058		C.ar		1		UNL1		0.1906
6		C		2.4310		3.1202		1.1556		C.ar		1		UNL1		-0.2772
7		C		2.8744		3.5553		-0.0987		C.ar		1		UNL1		0.2098
8		C		-0.6514		-0.0310		0.2292		C.ar		1		UNL1		0.5534
9		C		-1.8995		-0.7082		0.3091		C.ar		1		UNL1		0.0037
10		C		-1.7837		-2.1065		0.2971		C.ar		1		UNL1		0.0132
11		N		-0.6406		-2.7780		0.2063		N.ar		1		UNL1		-0.5020
12		C		0.4677		-2.0105		0.1262		C.ar		1		UNL1		0.6988
13		N		0.5086		-0.6737		0.1390		N.ar		1		UNL1		-0.5533
14		C		4.7837		-0.7548		-0.1882		C.ar		1		UNL1		-0.1592
15		C		3.4228		-1.0197		-0.0951		C.ar		1		UNL1		-0.1633
16		C		2.9733		-2.3523		-0.0655		C.ar		1		UNL1		0.3750
17		C		3.9172		-3.3964		-0.1334		C.ar		1		UNL1		-0.2028
18		C		5.2724		-3.1255		-0.2268		C.ar		1		UNL1		-0.1407
19		C		5.7251		-1.7946		-0.2551		C.ar		1		UNL1		0.1338
20		O		-0.6377		1.3058		0.2665		O.3		1		UNL1		-0.5247
21		N		1.6300		-2.7317		0.0273		N.pl3		1		UNL1		-0.7620
22		C		7.1236		-1.5058		-0.3509		C.1		1		UNL1		0.2295
23		N		8.2611		-1.2712		-0.4288		N.1		1		UNL1		-0.4823
24		C		-3.2147		-0.0197		0.3618		C.2		1		UNL1		0.3850
25		C		0.1661		2.0360		-2.3506		C.3		1		UNL1		-0.5410
26		C		0.7990		1.8848		2.6607		C.3		1		UNL1		-0.5386
27		C		-4.4634		-0.8721		0.6288		C.3		1		UNL1		-0.1930
28		O		-3.3363		1.1802		0.1664		O.2		1		UNL1		-0.4609
29		N		-5.5754		-0.0236		0.9977		N.3		1		UNL1		-0.5550
30		C		-6.9030		-0.6040		0.8131		C.3		1		UNL1		-0.1465
31		C		-7.3591		-0.8076		-0.6253		C.3		1		UNL1		-0.1000
32		C		-8.8311		-0.7742		-0.9578		C.3		1		UNL1		-0.3174
33		C		-7.9326		0.3561		-1.3991		C.3		1		UNL1		-0.3119
34		H		4.8429		4.1938		0.5473		H		1		UNL1		0.1596
35		H		3.8478		5.4905		-0.1186		H		1		UNL1		0.1693
36		H		4.5827		4.3058		-1.2019		H		1		UNL1		0.1592
37		H		2.4559		3.5282		-2.2105		H		1		UNL1		0.1217
38		H		2.9920		3.3967		2.0459		H		1		UNL1		0.1219
39		H		-2.6763		-2.7248		0.3533		H		1		UNL1		0.1645
40		H		5.1219		0.2762		-0.2094		H		1		UNL1		0.1631
41		H		2.7118		-0.2083		-0.0453		H		1		UNL1		0.2106
42		H		3.5780		-4.4295		-0.1116		H		1		UNL1		0.1402
43		H		5.9876		-3.9399		-0.2779		H		1		UNL1		0.1603
44		H		1.4481		-3.7280		0.0340		H		1		UNL1		0.3521
45		H		-0.9008		2.2304		-2.1977		H		1		UNL1		0.1866
46		H		0.2707		0.9670		-2.5772		H		1		UNL1		0.1643
47		H		0.5005		2.5961		-3.2285		H		1		UNL1		0.1572
48		H		1.3823		2.3546		3.4577		H		1		UNL1		0.1579
49		H		0.8970		0.7974		2.7699		H		1		UNL1		0.1666
50		H		-0.2572		2.1313		2.8150		H		1		UNL1		0.1796
51		H		-4.2618		-1.5955		1.4316		H		1		UNL1		0.1567
52		H		-4.6297		-1.4744		-0.2892		H		1		UNL1		0.1385
53		H		-5.4838		0.8612		0.5020		H		1		UNL1		0.3197
54		H		-7.6231		0.0539		1.3189		H		1		UNL1		0.1365
55		H		-6.9324		-1.5608		1.3528		H		1		UNL1		0.1365
56		H		-6.7640		-1.5125		-1.2044		H		1		UNL1		0.1341
57		H		-9.5293		-0.5799		-0.1466		H		1		UNL1		0.1498
58		H		-9.2104		-1.4600		-1.7106		H		1		UNL1		0.1495
59		H		-7.6956		0.4471		-2.4557		H		1		UNL1		0.1502
60		H		-8.0290		1.3105		-0.8854		H		1		UNL1		0.1502
@<TRIPOS>BOND
1		47		25		1
2		46		25		1
3		59		33		1
4		25		45		1
5		25		3		1
6		37		2		1
7		58		32		1
8		33		32		1
9		33		60		1
10		33		31		1
11		2		3		ar
12		2		7		ar
13		56		31		1
14		36		1		1
15		3		4		ar
16		32		31		1
17		32		57		1
18		31		30		1
19		23		22		3
20		22		19		1
21		52		27		1
22		43		18		1
23		19		18		ar
24		19		14		ar
25		18		17		ar
26		1		35		1
27		1		7		1
28		1		34		1
29		40		14		1
30		14		15		ar
31		17		42		1
32		17		16		ar
33		7		6		ar
34		15		16		ar
35		15		41		1
36		16		21		1
37		21		44		1
38		21		12		1
39		12		13		ar
40		12		11		ar
41		13		8		ar
42		4		20		1
43		4		5		ar
44		28		24		2
45		11		10		ar
46		8		20		1
47		8		9		ar
48		10		9		ar
49		10		39		1
50		9		24		1
51		24		27		1
52		53		29		1
53		27		29		1
54		27		51		1
55		30		29		1
56		30		54		1
57		30		55		1
58		6		5		ar
59		6		38		1
60		5		26		1
61		26		49		1
62		26		50		1
63		26		48		1

