@<TRIPOS>MOLECULE
GSX-2011-BMC-7093-1r
 43 45 0 0 0
SMALL
MULLIKEN_CHARGES

@<TRIPOS>ATOM
1		C		0.1426		3.1987		-0.4305		C.3		1		UNL1		-0.5125
2		C		0.1964		1.7000		-0.2964		C.ar		1		UNL1		0.3465
3		C		1.4055		1.0086		-0.2808		C.ar		1		UNL1		-0.2292
4		C		1.3353		-0.3893		-0.1503		C.ar		1		UNL1		0.1354
5		S		2.7185		-1.5005		-0.1257		S.3		1		UNL1		0.1754
6		C		4.2169		-0.4219		-0.1870		C.3		1		UNL1		-0.2771
7		C		5.3958		-1.3224		-0.6386		C.3		1		UNL1		-0.2776
8		C		6.7624		-0.7574		-0.1786		C.3		1		UNL1		-0.2697
9		C		6.7374		0.7738		-0.0928		C.3		1		UNL1		-0.2682
10		C		5.7219		1.2511		0.9741		C.3		1		UNL1		-0.2705
11		C		4.5375		0.2668		1.1461		C.3		1		UNL1		-0.2634
12		N		0.1679		-1.0243		-0.0483		N.ar		1		UNL1		-0.5282
13		C		-0.9387		-0.2584		-0.0776		C.ar		1		UNL1		0.6829
14		N		-2.1032		-0.9930		0.0284		N.pl3		1		UNL1		-0.7647
15		C		-3.4486		-0.6294		0.0424		C.ar		1		UNL1		0.3833
16		C		-4.3867		-1.6766		0.1557		C.ar		1		UNL1		-0.2057
17		C		-5.7465		-1.4167		0.1795		C.ar		1		UNL1		-0.1408
18		C		-6.2152		-0.0937		0.0905		C.ar		1		UNL1		0.1306
19		C		-7.6186		0.1829		0.1145		C.1		1		UNL1		0.2262
20		N		-8.7610		0.4072		0.1341		N.1		1		UNL1		-0.4867
21		C		-5.2814		0.9496		-0.0222		C.ar		1		UNL1		-0.1539
22		C		-3.9160		0.6955		-0.0467		C.ar		1		UNL1		-0.1598
23		N		-0.9889		1.0725		-0.1936		N.ar		1		UNL1		-0.5364
24		H		1.1407		3.6367		-0.5166		H		1		UNL1		0.1550
25		H		-0.4426		3.4764		-1.3143		H		1		UNL1		0.1806
26		H		-0.3614		3.6362		0.4385		H		1		UNL1		0.1803
27		H		2.3435		1.5396		-0.3682		H		1		UNL1		0.1414
28		H		4.0371		0.3346		-0.9589		H		1		UNL1		0.1695
29		H		5.2716		-2.3347		-0.2332		H		1		UNL1		0.1593
30		H		5.3657		-1.4203		-1.7296		H		1		UNL1		0.1539
31		H		7.0184		-1.1652		0.8081		H		1		UNL1		0.1414
32		H		7.5479		-1.0971		-0.8634		H		1		UNL1		0.1430
33		H		7.7359		1.1640		0.1351		H		1		UNL1		0.1412
34		H		6.4684		1.1817		-1.0769		H		1		UNL1		0.1348
35		H		6.2230		1.3690		1.9425		H		1		UNL1		0.1442
36		H		5.3449		2.2450		0.7017		H		1		UNL1		0.1355
37		H		3.6605		0.7911		1.5392		H		1		UNL1		0.1497
38		H		4.7863		-0.5082		1.8816		H		1		UNL1		0.1515
39		H		-1.9088		-1.9833		0.1063		H		1		UNL1		0.3482
40		H		-4.0365		-2.7039		0.2248		H		1		UNL1		0.1373
41		H		-6.4546		-2.2344		0.2668		H		1		UNL1		0.1568
42		H		-5.6343		1.9739		-0.0912		H		1		UNL1		0.1556
43		H		-3.2031		1.5024		-0.1337		H		1		UNL1		0.1849
@<TRIPOS>BOND
1		30		7		1
2		25		1		1
3		34		9		1
4		28		6		1
5		32		8		1
6		7		29		1
7		7		6		1
8		7		8		1
9		24		1		1
10		1		2		1
11		1		26		1
12		27		3		1
13		2		3		ar
14		2		23		ar
15		3		4		ar
16		23		13		ar
17		6		5		1
18		6		11		1
19		8		9		1
20		8		31		1
21		4		5		1
22		4		12		ar
23		43		22		1
24		9		33		1
25		9		10		1
26		42		21		1
27		13		12		ar
28		13		14		1
29		22		21		ar
30		22		15		ar
31		21		18		ar
32		14		15		1
33		14		39		1
34		15		16		ar
35		18		19		1
36		18		17		ar
37		19		20		3
38		16		17		ar
39		16		40		1
40		17		41		1
41		36		10		1
42		10		11		1
43		10		35		1
44		11		37		1
45		11		38		1

