@<TRIPOS>MOLECULE
HYP-2005-CJCU-254-23
 51 54 0 0 0
SMALL
MULLIKEN_CHARGES
****
Gaussian 16 #p B3LYP/6-31G* opt
@<TRIPOS>ATOM
1		C		-0.2214		3.7710		-1.4828		C.3		1		UNL1		-0.5454
2		C		-1.2200		3.0008		-0.6562		C.ar		1		UNL1		0.0176
3		C		-1.1767		1.6494		-0.4906		C.ar		1		UNL1		0.3304
4		C		-0.0991		0.8181		-1.1562		C.3		1		UNL1		-0.4625
5		C		1.2231		0.7338		-0.3976		C.ar		1		UNL1		0.1813
6		C		1.2766		0.7732		1.0226		C.ar		1		UNL1		-0.1811
7		C		2.4733		0.6488		1.6908		C.ar		1		UNL1		-0.1966
8		C		3.6935		0.4796		0.9862		C.ar		1		UNL1		0.1385
9		C		4.9458		0.3482		1.6443		C.ar		1		UNL1		-0.1908
10		C		6.1072		0.1917		0.9224		C.ar		1		UNL1		-0.1346
11		C		6.0690		0.1609		-0.4941		C.ar		1		UNL1		-0.1362
12		C		4.8716		0.2869		-1.1611		C.ar		1		UNL1		-0.1898
13		C		3.6540		0.4478		-0.4454		C.ar		1		UNL1		0.1435
14		C		2.4023		0.5818		-1.1007		C.ar		1		UNL1		-0.2658
15		N		-2.1147		0.9749		0.3056		N.ar		1		UNL1		-0.5674
16		C		-2.1245		-0.4726		0.4311		C.3		1		UNL1		0.0730
17		O		-2.6863		-1.0262		-0.7459		O.3		1		UNL1		-0.4661
18		C		-3.1750		-2.3592		-0.5741		C.3		1		UNL1		-0.1213
19		C		-2.0838		-3.3893		-0.3602		C.ar		1		UNL1		0.1298
20		C		-2.0652		-4.1925		0.7846		C.ar		1		UNL1		-0.1838
21		C		-1.0601		-5.1447		0.9718		C.ar		1		UNL1		-0.1258
22		C		-0.0560		-5.2958		0.0157		C.ar		1		UNL1		-0.1270
23		C		-0.0626		-4.4946		-1.1299		C.ar		1		UNL1		-0.1270
24		C		-1.0708		-3.5509		-1.3167		C.ar		1		UNL1		-0.1702
25		C		-3.2001		1.6376		0.9043		C.ar		1		UNL1		0.7906
26		O		-4.0588		1.0655		1.5565		O.2		1		UNL1		-0.5180
27		N		-3.1987		3.0016		0.7118		N.ar		1		UNL1		-0.7017
28		C		-2.2911		3.7740		-0.0272		C.ar		1		UNL1		0.5969
29		O		-2.4435		4.9856		-0.1030		O.2		1		UNL1		-0.5108
30		H		0.8112		3.5157		-1.2242		H		1		UNL1		0.1670
31		H		-0.3517		3.5873		-2.5580		H		1		UNL1		0.1597
32		H		-0.3724		4.8386		-1.3112		H		1		UNL1		0.1966
33		H		-0.4824		-0.1868		-1.3587		H		1		UNL1		0.2052
34		H		0.0953		1.2582		-2.1388		H		1		UNL1		0.1761
35		H		0.3622		0.9188		1.5906		H		1		UNL1		0.1350
36		H		2.4956		0.6845		2.7775		H		1		UNL1		0.1354
37		H		4.9709		0.3740		2.7312		H		1		UNL1		0.1327
38		H		7.0594		0.0919		1.4361		H		1		UNL1		0.1328
39		H		6.9928		0.0377		-1.0530		H		1		UNL1		0.1328
40		H		4.8412		0.2643		-2.2480		H		1		UNL1		0.1307
41		H		2.3841		0.5593		-2.1890		H		1		UNL1		0.1252
42		H		-2.7387		-0.7082		1.3030		H		1		UNL1		0.1874
43		H		-1.1044		-0.8333		0.5934		H		1		UNL1		0.1625
44		H		-3.7251		-2.5648		-1.4981		H		1		UNL1		0.1651
45		H		-3.8926		-2.3865		0.2594		H		1		UNL1		0.1491
46		H		-2.8444		-4.0744		1.5348		H		1		UNL1		0.1321
47		H		-1.0605		-5.7627		1.8657		H		1		UNL1		0.1349
48		H		0.7288		-6.0334		0.1601		H		1		UNL1		0.1347
49		H		0.7167		-4.6099		-1.8786		H		1		UNL1		0.1346
50		H		-1.0785		-2.9314		-2.2104		H		1		UNL1		0.1369
51		H		-3.9655		3.5021		1.1465		H		1		UNL1		0.3536
@<TRIPOS>BOND
1		31		1		1
2		40		12		1
3		50		24		1
4		41		14		1
5		34		4		1
6		49		23		1
7		44		18		1
8		1		32		1
9		1		30		1
10		1		2		1
11		33		4		1
12		24		23		ar
13		24		19		ar
14		12		11		ar
15		12		13		ar
16		4		3		1
17		4		5		1
18		23		22		ar
19		14		13		ar
20		14		5		ar
21		39		11		1
22		17		18		1
23		17		16		1
24		2		3		ar
25		2		28		ar
26		18		19		1
27		18		45		1
28		11		10		ar
29		3		15		ar
30		13		8		ar
31		5		6		ar
32		19		20		ar
33		29		28		2
34		28		27		ar
35		22		48		1
36		22		21		ar
37		15		16		1
38		15		25		ar
39		16		43		1
40		16		42		1
41		27		25		ar
42		27		51		1
43		20		21		ar
44		20		46		1
45		25		26		2
46		10		38		1
47		10		9		ar
48		21		47		1
49		8		9		ar
50		8		7		ar
51		6		35		1
52		6		7		ar
53		9		37		1
54		7		36		1

