@<TRIPOS>MOLECULE
HYP-2004-BMCL-3173-4A
 52 55 0 0 0
SMALL
MULLIKEN_CHARGES
****
Gaussian 16 #p B3LYP/6-31G* opt
@<TRIPOS>ATOM
1		C		-8.9977		0.9719		-0.8268		C.3		1		UNL1		-0.5339
2		C		-7.5777		0.6816		-0.4084		C.ar		1		UNL1		0.1874
3		C		-6.6116		1.6947		-0.3684		C.ar		1		UNL1		-0.1860
4		C		-5.3064		1.4293		0.0395		C.ar		1		UNL1		-0.1733
5		C		-4.9277		0.1303		0.4125		C.ar		1		UNL1		0.0812
6		C		-3.5554		-0.2315		0.8444		C.2		1		UNL1		0.4295
7		O		-3.2515		-1.4005		1.0767		O.2		1		UNL1		-0.4695
8		C		-2.4767		0.8369		0.9981		C.3		1		UNL1		-0.5659
9		S		-1.4138		0.9954		-0.5034		S.3		1		UNL1		0.1985
10		C		-0.1899		-0.2955		-0.2991		C.ar		1		UNL1		0.3207
11		N		0.9167		-0.1004		-0.9495		N.ar		1		UNL1		-0.5151
12		C		1.8908		-1.0776		-0.8726		C.ar		1		UNL1		0.2493
13		C		3.1317		-0.7808		-1.7043		C.3		1		UNL1		-0.4410
14		C		4.3753		-0.3575		-0.9279		C.ar		1		UNL1		0.1342
15		C		5.4522		-1.2207		-0.8575		C.ar		1		UNL1		-0.2104
16		C		6.6418		-0.8814		-0.1713		C.ar		1		UNL1		-0.1307
17		C		6.7555		0.3411		0.4437		C.ar		1		UNL1		-0.1924
18		C		5.6874		1.2760		0.3887		C.ar		1		UNL1		0.1433
19		C		5.7994		2.5530		1.0009		C.ar		1		UNL1		-0.1978
20		C		4.7713		3.4648		0.9344		C.ar		1		UNL1		-0.1311
21		C		3.5805		3.1323		0.2483		C.ar		1		UNL1		-0.1423
22		C		3.4348		1.9007		-0.3533		C.ar		1		UNL1		-0.2075
23		C		4.4762		0.9317		-0.3036		C.ar		1		UNL1		0.0664
24		C		1.7509		-2.2201		-0.1208		C.ar		1		UNL1		0.0624
25		C		2.7847		-3.3083		-0.0126		C.3		1		UNL1		-0.5393
26		C		0.5110		-2.4324		0.6190		C.ar		1		UNL1		0.5664
27		O		0.2296		-3.3971		1.3190		O.2		1		UNL1		-0.5214
28		N		-0.4387		-1.3925		0.4554		N.ar		1		UNL1		-0.6638
29		C		-5.8937		-0.8925		0.3638		C.ar		1		UNL1		-0.1500
30		C		-7.1930		-0.6182		-0.0357		C.ar		1		UNL1		-0.1768
31		H		-9.3565		0.2347		-1.5541		H		1		UNL1		0.1719
32		H		-9.0907		1.9656		-1.2747		H		1		UNL1		0.1640
33		H		-9.6768		0.9298		0.0346		H		1		UNL1		0.1762
34		H		-6.8843		2.7052		-0.6614		H		1		UNL1		0.1374
35		H		-4.5887		2.2432		0.0452		H		1		UNL1		0.1405
36		H		-1.8479		0.5795		1.8540		H		1		UNL1		0.2214
37		H		-2.8789		1.8374		1.1638		H		1		UNL1		0.2034
38		H		3.3873		-1.6759		-2.2829		H		1		UNL1		0.1598
39		H		2.8545		-0.0044		-2.4246		H		1		UNL1		0.1756
40		H		5.3883		-2.1890		-1.3476		H		1		UNL1		0.1235
41		H		7.4618		-1.5938		-0.1385		H		1		UNL1		0.1285
42		H		7.6647		0.6146		0.9739		H		1		UNL1		0.1272
43		H		6.7216		2.7982		1.5230		H		1		UNL1		0.1264
44		H		4.8720		4.4392		1.4054		H		1		UNL1		0.1257
45		H		2.7702		3.8549		0.1958		H		1		UNL1		0.1265
46		H		2.5057		1.6597		-0.8581		H		1		UNL1		0.1764
47		H		3.1848		-3.5900		-0.9938		H		1		UNL1		0.1481
48		H		2.3315		-4.1885		0.4481		H		1		UNL1		0.1908
49		H		3.6349		-2.9990		0.6068		H		1		UNL1		0.1758
50		H		-1.3639		-1.5638		0.8662		H		1		UNL1		0.3959
51		H		-5.5962		-1.8972		0.6448		H		1		UNL1		0.1742
52		H		-7.9259		-1.4209		-0.0655		H		1		UNL1		0.1397
@<TRIPOS>BOND
1		39		13		1
2		38		13		1
3		13		14		1
4		13		12		1
5		31		1		1
6		40		15		1
7		32		1		1
8		47		25		1
9		11		12		ar
10		11		10		ar
11		14		15		ar
12		14		23		ar
13		12		24		ar
14		46		22		1
15		15		16		ar
16		1		2		1
17		1		33		1
18		34		3		1
19		9		10		1
20		9		8		1
21		2		3		ar
22		2		30		ar
23		3		4		ar
24		22		23		ar
25		22		21		ar
26		23		18		ar
27		10		28		ar
28		16		41		1
29		16		17		ar
30		24		25		1
31		24		26		ar
32		52		30		1
33		30		29		ar
34		25		48		1
35		25		49		1
36		4		35		1
37		4		5		ar
38		45		21		1
39		21		20		ar
40		29		5		ar
41		29		51		1
42		18		17		ar
43		18		19		ar
44		5		6		1
45		17		42		1
46		28		26		ar
47		28		50		1
48		26		27		2
49		6		8		1
50		6		7		2
51		20		19		ar
52		20		44		1
53		8		37		1
54		8		36		1
55		19		43		1

