@<TRIPOS>MOLECULE
HYP-2005-CJCU-254-16
 42 44 0 0 0
SMALL
MULLIKEN_CHARGES
****
Gaussian 16 #p B3LYP/6-31G* opt
@<TRIPOS>ATOM
1		C		-0.1330		3.1976		0.2102		C.3		1		UNL1		-0.5507
2		C		-1.2366		2.1780		0.0815		C.ar		1		UNL1		0.0198
3		C		-1.2052		0.9504		0.6768		C.ar		1		UNL1		0.3450
4		C		-0.0117		0.5711		1.5396		C.3		1		UNL1		-0.4619
5		C		1.2148		0.0699		0.7823		C.ar		1		UNL1		0.1833
6		C		1.1179		-0.9726		-0.1815		C.ar		1		UNL1		-0.1984
7		C		2.2416		-1.4374		-0.8248		C.ar		1		UNL1		-0.2016
8		C		3.5270		-0.8980		-0.5527		C.ar		1		UNL1		0.1396
9		C		4.7038		-1.3582		-1.2013		C.ar		1		UNL1		-0.1912
10		C		5.9309		-0.8072		-0.9076		C.ar		1		UNL1		-0.1341
11		C		6.0368		0.2318		0.0499		C.ar		1		UNL1		-0.1362
12		C		4.9142		0.7001		0.6950		C.ar		1		UNL1		-0.1902
13		C		3.6337		0.1518		0.4148		C.ar		1		UNL1		0.1438
14		C		2.4545		0.6112		1.0595		C.ar		1		UNL1		-0.2741
15		N		-2.2781		0.0467		0.5472		N.ar		1		UNL1		-0.5721
16		C		-2.2582		-1.3436		1.0134		C.3		1		UNL1		0.0667
17		O		-2.0102		-2.1824		-0.0953		O.3		1		UNL1		-0.4805
18		C		-2.8038		-3.3753		-0.1763		C.3		1		UNL1		0.1750
19		O		-4.1451		-3.1739		0.1183		O.3		1		UNL1		-0.6212
20		C		-3.4120		0.3600		-0.2102		C.ar		1		UNL1		0.8160
21		O		-4.3607		-0.4066		-0.3556		O.2		1		UNL1		-0.5476
22		N		-3.4032		1.6065		-0.7822		N.ar		1		UNL1		-0.7004
23		C		-2.3937		2.5773		-0.7183		C.ar		1		UNL1		0.5984
24		O		-2.5393		3.6441		-1.2975		O.2		1		UNL1		-0.5072
25		H		-0.0547		3.5900		1.2333		H		1		UNL1		0.1575
26		H		-0.3554		4.0377		-0.4502		H		1		UNL1		0.1998
27		H		0.8430		2.7843		-0.0626		H		1		UNL1		0.1750
28		H		-0.2977		-0.1561		2.3049		H		1		UNL1		0.1757
29		H		0.2750		1.4686		2.0954		H		1		UNL1		0.1792
30		H		0.1519		-1.4118		-0.4123		H		1		UNL1		0.1715
31		H		2.1539		-2.2349		-1.5591		H		1		UNL1		0.1351
32		H		4.6187		-2.1554		-1.9362		H		1		UNL1		0.1329
33		H		6.8245		-1.1672		-1.4100		H		1		UNL1		0.1330
34		H		7.0107		0.6589		0.2730		H		1		UNL1		0.1330
35		H		4.9936		1.4982		1.4296		H		1		UNL1		0.1306
36		H		2.5462		1.4100		1.7933		H		1		UNL1		0.1260
37		H		-1.4776		-1.4596		1.7634		H		1		UNL1		0.1574
38		H		-3.2293		-1.5705		1.4530		H		1		UNL1		0.2010
39		H		-2.4397		-4.1338		0.5292		H		1		UNL1		0.1392
40		H		-2.6280		-3.7159		-1.2054		H		1		UNL1		0.1407
41		H		-4.4258		-2.3464		-0.3251		H		1		UNL1		0.4355
42		H		-4.2238		1.8413		-1.3296		H		1		UNL1		0.3568
@<TRIPOS>BOND
1		32		9		1
2		31		7		1
3		33		10		1
4		42		22		1
5		24		23		2
6		40		18		1
7		9		10		ar
8		9		8		ar
9		10		11		ar
10		7		8		ar
11		7		6		ar
12		22		23		ar
13		22		20		ar
14		23		2		ar
15		8		13		ar
16		26		1		1
17		30		6		1
18		21		20		2
19		41		19		1
20		20		15		ar
21		6		5		ar
22		18		17		1
23		18		19		1
24		18		39		1
25		17		16		1
26		27		1		1
27		11		34		1
28		11		12		ar
29		2		1		1
30		2		3		ar
31		1		25		1
32		13		12		ar
33		13		14		ar
34		15		3		ar
35		15		16		1
36		3		4		1
37		12		35		1
38		5		14		ar
39		5		4		1
40		16		38		1
41		16		37		1
42		14		36		1
43		4		29		1
44		4		28		1

