@<TRIPOS>MOLECULE
HYP-2004-BMCL-3173-4O
 59 62 0 0 0
SMALL
MULLIKEN_CHARGES
****
Gaussian 16 #p B3LYP/6-31G* opt
@<TRIPOS>ATOM
1		C		9.0270		-2.8499		0.3037		C.3		1		UNL1		-0.2240
2		O		8.4621		-1.7895		1.0676		O.3		1		UNL1		-0.4939
3		C		7.3398		-1.1837		0.6143		C.ar		1		UNL1		0.3924
4		C		6.6783		-1.5191		-0.5763		C.ar		1		UNL1		-0.1995
5		C		5.5312		-0.8207		-0.9448		C.ar		1		UNL1		-0.1845
6		C		5.0163		0.2107		-0.1449		C.ar		1		UNL1		0.0838
7		C		3.7974		0.9759		-0.4772		C.2		1		UNL1		0.4268
8		O		3.3438		1.8200		0.2968		O.2		1		UNL1		-0.4775
9		C		3.0518		0.7315		-1.7865		C.3		1		UNL1		-0.5659
10		S		1.6471		-0.4530		-1.6029		S.3		1		UNL1		0.1995
11		C		0.3064		0.5606		-0.9879		C.ar		1		UNL1		0.3178
12		N		-0.8800		0.0848		-1.2130		N.ar		1		UNL1		-0.4978
13		C		-1.9597		0.7925		-0.7196		C.ar		1		UNL1		0.1835
14		C		-3.2856		0.1320		-1.0404		C.3		1		UNL1		-0.4231
15		C		-3.8756		-0.7557		0.0509		C.ar		1		UNL1		0.1278
16		C		-3.2094		-0.9993		1.2345		C.ar		1		UNL1		-0.1944
17		C		-3.7590		-1.8311		2.2401		C.ar		1		UNL1		-0.1355
18		C		-4.9843		-2.4228		2.0584		C.ar		1		UNL1		-0.1904
19		C		-5.7110		-2.2115		0.8559		C.ar		1		UNL1		0.1381
20		C		-6.9780		-2.8173		0.6440		C.ar		1		UNL1		-0.1943
21		C		-7.6768		-2.6166		-0.5245		C.ar		1		UNL1		-0.1329
22		C		-7.1308		-1.7954		-1.5375		C.ar		1		UNL1		-0.1337
23		C		-5.9045		-1.1912		-1.3621		C.ar		1		UNL1		-0.1963
24		C		-5.1545		-1.3721		-0.1669		C.ar		1		UNL1		0.0713
25		C		-1.8437		1.9848		-0.0377		C.ar		1		UNL1		0.0624
26		C		-3.0277		2.7679		0.5110		C.3		1		UNL1		-0.1442
27		C		-2.9538		2.9336		2.0432		C.3		1		UNL1		-0.4566
28		C		-3.1805		4.1334		-0.1905		C.3		1		UNL1		-0.4528
29		C		-0.5067		2.5331		0.1765		C.ar		1		UNL1		0.5701
30		O		-0.2145		3.5841		0.7384		O.2		1		UNL1		-0.5238
31		N		0.5396		1.7172		-0.3228		N.ar		1		UNL1		-0.6621
32		C		5.6926		0.5281		1.0535		C.ar		1		UNL1		-0.1568
33		C		6.8353		-0.1504		1.4274		C.ar		1		UNL1		-0.1708
34		H		8.3258		-3.6874		0.2043		H		1		UNL1		0.1628
35		H		9.3309		-2.5059		-0.6926		H		1		UNL1		0.1611
36		H		9.9072		-3.1772		0.8586		H		1		UNL1		0.1819
37		H		7.0451		-2.3145		-1.2139		H		1		UNL1		0.1447
38		H		5.0359		-1.1088		-1.8663		H		1		UNL1		0.1425
39		H		2.6668		1.6866		-2.1523		H		1		UNL1		0.2186
40		H		3.6786		0.3004		-2.5688		H		1		UNL1		0.2007
41		H		-4.0198		0.8968		-1.3182		H		1		UNL1		0.1661
42		H		-3.1169		-0.4759		-1.9371		H		1		UNL1		0.1828
43		H		-2.2390		-0.5450		1.4061		H		1		UNL1		0.1348
44		H		-3.2002		-1.9947		3.1577		H		1		UNL1		0.1296
45		H		-5.4146		-3.0608		2.8267		H		1		UNL1		0.1266
46		H		-7.3877		-3.4491		1.4290		H		1		UNL1		0.1283
47		H		-8.6450		-3.0875		-0.6722		H		1		UNL1		0.1282
48		H		-7.6823		-1.6407		-2.4611		H		1		UNL1		0.1279
49		H		-5.5044		-0.5696		-2.1562		H		1		UNL1		0.1322
50		H		-3.9321		2.1873		0.3037		H		1		UNL1		0.1339
51		H		-2.9105		1.9584		2.5411		H		1		UNL1		0.1401
52		H		-2.0739		3.5135		2.3310		H		1		UNL1		0.1819
53		H		-3.8487		3.4545		2.4041		H		1		UNL1		0.1353
54		H		-2.3060		4.7622		-0.0052		H		1		UNL1		0.1812
55		H		-4.0686		4.6541		0.1874		H		1		UNL1		0.1366
56		H		-3.2964		4.0118		-1.2742		H		1		UNL1		0.1324
57		H		1.4917		2.0154		-0.0768		H		1		UNL1		0.3957
58		H		5.2919		1.3212		1.6756		H		1		UNL1		0.1763
59		H		7.3632		0.0895		2.3447		H		1		UNL1		0.1552
@<TRIPOS>BOND
1		40		9		1
2		48		22		1
3		49		23		1
4		39		9		1
5		42		14		1
6		38		5		1
7		9		10		1
8		9		7		1
9		10		11		1
10		22		23		ar
11		22		21		ar
12		23		24		ar
13		41		14		1
14		56		28		1
15		37		4		1
16		12		11		ar
17		12		13		ar
18		14		13		1
19		14		15		1
20		11		31		ar
21		5		4		ar
22		5		6		ar
23		13		25		ar
24		35		1		1
25		47		21		1
26		4		3		ar
27		21		20		ar
28		7		6		1
29		7		8		2
30		31		57		1
31		31		29		ar
32		28		54		1
33		28		55		1
34		28		26		1
35		24		15		ar
36		24		19		ar
37		6		32		ar
38		25		29		ar
39		25		26		1
40		15		16		ar
41		29		30		2
42		34		1		1
43		50		26		1
44		1		36		1
45		1		2		1
46		26		27		1
47		3		2		1
48		3		33		ar
49		20		19		ar
50		20		46		1
51		19		18		ar
52		32		33		ar
53		32		58		1
54		16		43		1
55		16		17		ar
56		33		59		1
57		27		52		1
58		27		53		1
59		27		51		1
60		18		17		ar
61		18		45		1
62		17		44		1

