@<TRIPOS>MOLECULE
HYP-2005-CJCU-254-5
 41 43 0 0 0
SMALL
MULLIKEN_CHARGES
****
Gaussian 16 #p B3LYP/6-31G* opt
@<TRIPOS>ATOM
1		C		0.4996		4.0161		-0.2198		C.3		1		UNL1		-0.2067
2		O		1.1060		2.7669		-0.5086		O.3		1		UNL1		-0.4571
3		C		1.1506		1.9241		0.6273		C.3		1		UNL1		0.0780
4		N		1.9093		0.7320		0.2991		N.ar		1		UNL1		-0.5605
5		C		1.3648		-0.2981		-0.4822		C.ar		1		UNL1		0.3282
6		C		-0.0696		-0.1269		-0.9280		C.3		1		UNL1		-0.4605
7		C		-1.1377		-0.5488		0.0788		C.ar		1		UNL1		0.1115
8		C		-0.8172		-1.2262		1.2382		C.ar		1		UNL1		-0.1999
9		C		-1.8119		-1.6286		2.1622		C.ar		1		UNL1		-0.1354
10		C		-3.1343		-1.3516		1.9197		C.ar		1		UNL1		-0.1882
11		C		-3.5202		-0.6631		0.7379		C.ar		1		UNL1		0.1363
12		C		-4.8837		-0.3731		0.4663		C.ar		1		UNL1		-0.1935
13		C		-5.2553		0.2869		-0.6828		C.ar		1		UNL1		-0.1318
14		C		-4.2699		0.6864		-1.6144		C.ar		1		UNL1		-0.1335
15		C		-2.9375		0.4229		-1.3795		C.ar		1		UNL1		-0.1995
16		C		-2.5152		-0.2542		-0.2019		C.ar		1		UNL1		0.0736
17		C		2.0938		-1.3960		-0.8263		C.ar		1		UNL1		0.0071
18		C		1.5490		-2.5451		-1.6385		C.3		1		UNL1		-0.5428
19		C		3.4954		-1.4923		-0.4119		C.ar		1		UNL1		0.5980
20		O		4.2546		-2.4187		-0.6611		O.2		1		UNL1		-0.5101
21		N		3.9512		-0.3959		0.3320		N.ar		1		UNL1		-0.7015
22		C		3.2526		0.7312		0.7096		C.ar		1		UNL1		0.7895
23		O		3.7589		1.6317		1.3583		O.2		1		UNL1		-0.5141
24		H		-0.5449		3.8976		0.1084		H		1		UNL1		0.1397
25		H		1.0538		4.5608		0.5589		H		1		UNL1		0.1495
26		H		0.5188		4.5963		-1.1448		H		1		UNL1		0.1692
27		H		0.1400		1.6372		0.9424		H		1		UNL1		0.1547
28		H		1.6697		2.4123		1.4563		H		1		UNL1		0.1895
29		H		-0.2029		-0.7053		-1.8484		H		1		UNL1		0.1858
30		H		-0.2152		0.9196		-1.2136		H		1		UNL1		0.2003
31		H		0.2209		-1.4632		1.4515		H		1		UNL1		0.1382
32		H		-1.5166		-2.1586		3.0634		H		1		UNL1		0.1368
33		H		-3.9045		-1.6564		2.6240		H		1		UNL1		0.1335
34		H		-5.6340		-0.6873		1.1881		H		1		UNL1		0.1340
35		H		-6.3026		0.5006		-0.8777		H		1		UNL1		0.1344
36		H		-4.5660		1.2040		-2.5227		H		1		UNL1		0.1337
37		H		-2.2016		0.7362		-2.1128		H		1		UNL1		0.1356
38		H		0.5925		-2.9087		-1.2491		H		1		UNL1		0.1633
39		H		2.2698		-3.3648		-1.6117		H		1		UNL1		0.1976
40		H		1.4011		-2.2712		-2.6915		H		1		UNL1		0.1632
41		H		4.9212		-0.4231		0.6254		H		1		UNL1		0.3541
@<TRIPOS>BOND
1		40		18		1
2		36		14		1
3		37		15		1
4		29		6		1
5		18		39		1
6		18		38		1
7		18		17		1
8		14		15		ar
9		14		13		ar
10		15		16		ar
11		30		6		1
12		26		1		1
13		6		5		1
14		6		7		1
15		35		13		1
16		17		5		ar
17		17		19		ar
18		13		12		ar
19		20		19		2
20		2		1		1
21		2		3		1
22		5		4		ar
23		19		21		ar
24		1		24		1
25		1		25		1
26		16		7		ar
27		16		11		ar
28		7		8		ar
29		4		3		1
30		4		22		ar
31		21		41		1
32		21		22		ar
33		12		11		ar
34		12		34		1
35		3		27		1
36		3		28		1
37		22		23		2
38		11		10		ar
39		8		31		1
40		8		9		ar
41		10		9		ar
42		10		33		1
43		9		32		1

