@<TRIPOS>MOLECULE
HYP-2005-CJCU-254-7
 47 49 0 0 0
SMALL
MULLIKEN_CHARGES
****
Gaussian 16 #p B3LYP/6-31G* opt
@<TRIPOS>ATOM
1		C		0.1668		4.2484		-0.8468		C.3		1		UNL1		-0.2070
2		O		-0.5834		3.0454		-0.8902		O.3		1		UNL1		-0.4564
3		C		-0.6839		2.4367		0.3834		C.3		1		UNL1		0.0768
4		N		-1.5931		1.3082		0.2982		N.ar		1		UNL1		-0.5595
5		C		-1.2032		0.0760		-0.2562		C.ar		1		UNL1		0.3142
6		C		0.2221		0.0200		-0.7684		C.3		1		UNL1		-0.4773
7		C		1.2938		-0.3429		0.2555		C.ar		1		UNL1		0.1165
8		C		0.9729		-0.7434		1.5370		C.ar		1		UNL1		-0.2000
9		C		1.9721		-1.0878		2.4796		C.ar		1		UNL1		-0.1359
10		C		3.2992		-1.0320		2.1331		C.ar		1		UNL1		-0.1879
11		C		3.6849		-0.6307		0.8255		C.ar		1		UNL1		0.1363
12		C		5.0522		-0.5706		0.4465		C.ar		1		UNL1		-0.1936
13		C		5.4224		-0.1861		-0.8222		C.ar		1		UNL1		-0.1318
14		C		4.4317		0.1564		-1.7706		C.ar		1		UNL1		-0.1335
15		C		3.0957		0.1106		-1.4342		C.ar		1		UNL1		-0.1996
16		C		2.6753		-0.2801		-0.1326		C.ar		1		UNL1		0.0736
17		C		-2.0667		-0.9807		-0.3352		C.ar		1		UNL1		0.0022
18		C		-1.6778		-2.3589		-0.8609		C.3		1		UNL1		-0.1434
19		C		-1.9056		-3.4641		0.1918		C.3		1		UNL1		-0.4563
20		C		-2.3920		-2.6916		-2.1864		C.3		1		UNL1		-0.4523
21		C		-3.4596		-0.7905		0.0868		C.ar		1		UNL1		0.6041
22		O		-4.3559		-1.6241		0.0300		O.2		1		UNL1		-0.5118
23		N		-3.7500		0.4842		0.5884		N.ar		1		UNL1		-0.7002
24		C		-2.9066		1.5643		0.7204		C.ar		1		UNL1		0.7913
25		O		-3.2738		2.6344		1.1772		O.2		1		UNL1		-0.5146
26		H		0.1815		4.6466		-1.8635		H		1		UNL1		0.1693
27		H		-0.2982		4.9869		-0.1770		H		1		UNL1		0.1500
28		H		1.2020		4.0734		-0.5145		H		1		UNL1		0.1399
29		H		0.2963		2.0904		0.7323		H		1		UNL1		0.1552
30		H		-1.1092		3.1303		1.1133		H		1		UNL1		0.1902
31		H		0.2601		-0.6962		-1.5943		H		1		UNL1		0.1885
32		H		0.4520		0.9883		-1.2231		H		1		UNL1		0.2038
33		H		-0.0695		-0.8029		1.8352		H		1		UNL1		0.1384
34		H		1.6764		-1.3972		3.4782		H		1		UNL1		0.1363
35		H		4.0727		-1.2952		2.8504		H		1		UNL1		0.1333
36		H		5.8064		-0.8380		1.1829		H		1		UNL1		0.1339
37		H		6.4725		-0.1459		-1.0980		H		1		UNL1		0.1343
38		H		4.7262		0.4570		-2.7724		H		1		UNL1		0.1337
39		H		2.3550		0.3753		-2.1816		H		1		UNL1		0.1360
40		H		-0.6023		-2.3500		-1.0600		H		1		UNL1		0.1324
41		H		-2.9656		-3.5643		0.4340		H		1		UNL1		0.1848
42		H		-1.3544		-3.2479		1.1143		H		1		UNL1		0.1370
43		H		-1.5443		-4.4238		-0.1962		H		1		UNL1		0.1386
44		H		-2.0555		-3.6652		-2.5622		H		1		UNL1		0.1391
45		H		-2.1740		-1.9396		-2.9540		H		1		UNL1		0.1352
46		H		-3.4745		-2.7334		-2.0428		H		1		UNL1		0.1827
47		H		-4.7086		0.6404		0.8795		H		1		UNL1		0.3536
@<TRIPOS>BOND
1		45		20		1
2		38		14		1
3		44		20		1
4		20		46		1
5		20		18		1
6		39		15		1
7		26		1		1
8		14		15		ar
9		14		13		ar
10		31		6		1
11		15		16		ar
12		32		6		1
13		37		13		1
14		40		18		1
15		2		1		1
16		2		3		1
17		18		17		1
18		18		19		1
19		1		28		1
20		1		27		1
21		13		12		ar
22		6		5		1
23		6		7		1
24		17		5		ar
25		17		21		ar
26		5		4		ar
27		43		19		1
28		16		7		ar
29		16		11		ar
30		22		21		2
31		21		23		ar
32		19		41		1
33		19		42		1
34		7		8		ar
35		4		3		1
36		4		24		ar
37		3		29		1
38		3		30		1
39		12		11		ar
40		12		36		1
41		23		24		ar
42		23		47		1
43		24		25		2
44		11		10		ar
45		8		33		1
46		8		9		ar
47		10		9		ar
48		10		35		1
49		9		34		1

