@<TRIPOS>MOLECULE
HYP-2005-CJCU-254-21
 44 46 0 0 0
SMALL
MULLIKEN_CHARGES
****
Gaussian 16 #p B3LYP/6-31G* opt
@<TRIPOS>ATOM
1		C		2.8718		4.2535		0.8955		C.3		1		UNL1		-0.4537
2		C		2.0220		2.9990		0.7816		C.3		1		UNL1		-0.0276
3		O		1.9238		2.6620		-0.5976		O.3		1		UNL1		-0.4431
4		C		1.1305		1.5500		-0.9065		C.3		1		UNL1		0.0777
5		N		1.7712		0.2608		-0.5782		N.ar		1		UNL1		-0.5735
6		C		1.4587		-0.5192		0.5439		C.ar		1		UNL1		0.3429
7		C		0.2622		-0.1067		1.3795		C.3		1		UNL1		-0.4529
8		C		-1.0966		-0.3524		0.7300		C.ar		1		UNL1		0.1758
9		C		-1.3447		-1.5411		-0.0099		C.ar		1		UNL1		-0.1823
10		C		-2.5853		-1.7907		-0.5485		C.ar		1		UNL1		-0.1919
11		C		-3.6565		-0.8724		-0.3841		C.ar		1		UNL1		0.1362
12		C		-4.9487		-1.1002		-0.9280		C.ar		1		UNL1		-0.1902
13		C		-5.9601		-0.1839		-0.7466		C.ar		1		UNL1		-0.1338
14		C		-5.7241		1.0044		-0.0121		C.ar		1		UNL1		-0.1356
15		C		-4.4820		1.2547		0.5266		C.ar		1		UNL1		-0.1897
16		C		-3.4174		0.3289		0.3580		C.ar		1		UNL1		0.1448
17		C		-2.1234		0.5551		0.8983		C.ar		1		UNL1		-0.2747
18		C		2.1713		-1.6409		0.8582		C.ar		1		UNL1		-0.0057
19		C		1.8878		-2.5299		2.0474		C.3		1		UNL1		-0.5478
20		C		3.2914		-2.0522		0.0058		C.ar		1		UNL1		0.5977
21		O		4.0128		-3.0237		0.1918		O.2		1		UNL1		-0.5127
22		N		3.4906		-1.2363		-1.1111		N.ar		1		UNL1		-0.7008
23		C		2.7885		-0.1055		-1.4773		C.ar		1		UNL1		0.7893
24		O		3.0336		0.5162		-2.4959		O.2		1		UNL1		-0.5055
25		H		2.9742		4.5511		1.9448		H		1		UNL1		0.1453
26		H		3.8700		4.0752		0.4839		H		1		UNL1		0.1694
27		H		2.4140		5.0782		0.3405		H		1		UNL1		0.1633
28		H		2.4806		2.1745		1.3493		H		1		UNL1		0.1339
29		H		1.0156		3.1743		1.1986		H		1		UNL1		0.1199
30		H		0.1569		1.5878		-0.4137		H		1		UNL1		0.1534
31		H		1.0023		1.5717		-1.9865		H		1		UNL1		0.1966
32		H		0.3383		0.9466		1.6665		H		1		UNL1		0.1679
33		H		0.3110		-0.6693		2.3157		H		1		UNL1		0.1895
34		H		-0.5386		-2.2548		-0.1554		H		1		UNL1		0.1418
35		H		-2.7597		-2.7033		-1.1135		H		1		UNL1		0.1383
36		H		-5.1259		-2.0132		-1.4916		H		1		UNL1		0.1349
37		H		-6.9448		-0.3687		-1.1668		H		1		UNL1		0.1350
38		H		-6.5303		1.7200		0.1241		H		1		UNL1		0.1348
39		H		-4.2996		2.1667		1.0902		H		1		UNL1		0.1314
40		H		-1.9526		1.4701		1.4635		H		1		UNL1		0.1253
41		H		2.0529		-2.0136		3.0013		H		1		UNL1		0.1608
42		H		2.5703		-3.3812		2.0094		H		1		UNL1		0.2021
43		H		0.8619		-2.9153		2.0501		H		1		UNL1		0.1601
44		H		4.2356		-1.5075		-1.7429		H		1		UNL1		0.3535
@<TRIPOS>BOND
1		24		23		2
2		31		4		1
3		44		22		1
4		36		12		1
5		23		22		ar
6		23		5		ar
7		37		13		1
8		35		10		1
9		22		20		ar
10		12		13		ar
11		12		11		ar
12		4		3		1
13		4		5		1
14		4		30		1
15		13		14		ar
16		3		2		1
17		5		6		ar
18		10		11		ar
19		10		9		ar
20		11		16		ar
21		34		9		1
22		14		38		1
23		14		15		ar
24		9		8		ar
25		20		21		2
26		20		18		ar
27		27		1		1
28		16		15		ar
29		16		17		ar
30		26		1		1
31		15		39		1
32		6		18		ar
33		6		7		1
34		8		17		ar
35		8		7		1
36		2		1		1
37		2		29		1
38		2		28		1
39		18		19		1
40		1		25		1
41		17		40		1
42		7		32		1
43		7		33		1
44		42		19		1
45		19		43		1
46		19		41		1

