@<TRIPOS>MOLECULE
HYP-2005-CJCU-254-2
 48 50 0 0 0
SMALL
MULLIKEN_CHARGES
****
Gaussian 16 #p B3LYP/6-31G* opt
@<TRIPOS>ATOM
1		C		0.2190		3.0092		-2.8735		C.3		1		UNL1		-0.4477
2		C		0.9413		2.5050		-1.6099		C.3		1		UNL1		-0.3374
3		C		-0.0173		2.1216		-0.5061		C.ar		1		UNL1		0.0051
4		C		-0.4331		0.8518		-0.2390		C.ar		1		UNL1		0.3260
5		C		0.0676		-0.3433		-1.0444		C.3		1		UNL1		-0.4578
6		C		1.5479		-0.7266		-0.9808		C.ar		1		UNL1		0.1287
7		C		2.1834		-0.9709		-2.1858		C.ar		1		UNL1		-0.2082
8		C		3.5213		-1.4195		-2.2579		C.ar		1		UNL1		-0.1280
9		C		4.2359		-1.6277		-1.1045		C.ar		1		UNL1		-0.1912
10		C		3.6385		-1.3947		0.1620		C.ar		1		UNL1		0.1427
11		C		4.3705		-1.6154		1.3596		C.ar		1		UNL1		-0.1944
12		C		3.8019		-1.4006		2.5931		C.ar		1		UNL1		-0.1310
13		C		2.4659		-0.9471		2.6769		C.ar		1		UNL1		-0.1426
14		C		1.7293		-0.7213		1.5347		C.ar		1		UNL1		-0.1948
15		C		2.2766		-0.9368		0.2388		C.ar		1		UNL1		0.0766
16		N		-1.3856		0.5963		0.7719		N.ar		1		UNL1		-0.5750
17		C		-1.9544		-0.7212		0.9958		C.3		1		UNL1		0.0760
18		O		-2.7990		-1.0470		-0.0911		O.3		1		UNL1		-0.4776
19		C		-3.5167		-2.2564		0.1150		C.3		1		UNL1		-0.0368
20		C		-4.4247		-2.4751		-1.0933		C.3		1		UNL1		-0.0532
21		O		-5.1910		-3.6623		-0.9568		O.3		1		UNL1		-0.6084
22		C		-1.9715		1.6274		1.5319		C.ar		1		UNL1		0.7887
23		O		-2.8227		1.4340		2.3851		O.2		1		UNL1		-0.5148
24		N		-1.4857		2.8824		1.2469		N.ar		1		UNL1		-0.6997
25		C		-0.5562		3.2436		0.2649		C.ar		1		UNL1		0.6070
26		O		-0.2586		4.4204		0.1095		O.2		1		UNL1		-0.5110
27		H		0.9462		3.2983		-3.6409		H		1		UNL1		0.1456
28		H		-0.3943		3.8848		-2.6409		H		1		UNL1		0.1725
29		H		-0.4341		2.2381		-3.3000		H		1		UNL1		0.1357
30		H		1.5970		1.6696		-1.8614		H		1		UNL1		0.1524
31		H		1.5791		3.3102		-1.2307		H		1		UNL1		0.1717
32		H		-0.1585		-0.1205		-2.0926		H		1		UNL1		0.1839
33		H		-0.5394		-1.2213		-0.8203		H		1		UNL1		0.1936
34		H		1.6356		-0.8157		-3.1124		H		1		UNL1		0.1288
35		H		3.9750		-1.5947		-3.2294		H		1		UNL1		0.1351
36		H		5.2662		-1.9730		-1.1420		H		1		UNL1		0.1342
37		H		5.3984		-1.9609		1.2795		H		1		UNL1		0.1337
38		H		4.3744		-1.5737		3.5001		H		1		UNL1		0.1352
39		H		2.0168		-0.7690		3.6502		H		1		UNL1		0.1357
40		H		0.7166		-0.3542		1.6352		H		1		UNL1		0.1409
41		H		-1.1543		-1.4654		1.1022		H		1		UNL1		0.1430
42		H		-2.5188		-0.6623		1.9288		H		1		UNL1		0.2011
43		H		-4.1234		-2.2022		1.0310		H		1		UNL1		0.1522
44		H		-2.8209		-3.1078		0.2249		H		1		UNL1		0.1134
45		H		-3.8211		-2.4720		-2.0132		H		1		UNL1		0.1345
46		H		-5.1396		-1.6507		-1.1638		H		1		UNL1		0.1695
47		H		-4.5929		-4.4182		-1.0620		H		1		UNL1		0.3918
48		H		-1.8898		3.6385		1.7881		H		1		UNL1		0.3543
@<TRIPOS>BOND
1		27		1		1
2		29		1		1
3		35		8		1
4		34		7		1
5		1		28		1
6		1		2		1
7		8		7		ar
8		8		9		ar
9		7		6		ar
10		32		5		1
11		45		20		1
12		30		2		1
13		2		31		1
14		2		3		1
15		46		20		1
16		36		9		1
17		9		10		ar
18		20		21		1
19		20		19		1
20		47		21		1
21		5		6		1
22		5		33		1
23		5		4		1
24		6		15		ar
25		3		4		ar
26		3		25		ar
27		4		16		ar
28		18		19		1
29		18		17		1
30		26		25		2
31		19		44		1
32		19		43		1
33		10		15		ar
34		10		11		ar
35		15		14		ar
36		25		24		ar
37		16		17		1
38		16		22		ar
39		17		41		1
40		17		42		1
41		24		22		ar
42		24		48		1
43		37		11		1
44		11		12		ar
45		22		23		2
46		14		40		1
47		14		13		ar
48		12		13		ar
49		12		38		1
50		13		39		1

