@<TRIPOS>MOLECULE
HYP-2004-BMCL-3173-4B
 53 56 0 0 0
SMALL
MULLIKEN_CHARGES
****
Gaussian 16 #p B3LYP/6-31G* opt
@<TRIPOS>ATOM
1		C		6.6297		-2.7493		-0.4460		C.3		1		UNL1		-0.2211
2		O		6.3154		-1.8058		0.5704		O.3		1		UNL1		-0.4982
3		C		5.3423		-0.8907		0.3311		C.ar		1		UNL1		0.3888
4		C		4.6113		-0.7983		-0.8614		C.ar		1		UNL1		-0.1982
5		C		3.6329		0.1863		-0.9930		C.ar		1		UNL1		-0.1923
6		C		3.3623		1.0883		0.0448		C.ar		1		UNL1		0.0829
7		C		2.3305		2.1587		-0.0400		C.2		1		UNL1		0.4273
8		O		2.1075		2.9065		0.8959		O.2		1		UNL1		-0.4479
9		C		1.5574		2.2813		-1.3649		C.3		1		UNL1		-0.5418
10		S		0.3456		3.6366		-1.4001		S.3		1		UNL1		0.1770
11		C		-0.9589		2.8975		-0.4432		C.ar		1		UNL1		0.3499
12		N		-0.9468		1.6408		-0.1218		N.ar		1		UNL1		-0.5093
13		C		-2.0173		1.1517		0.6034		C.ar		1		UNL1		0.2127
14		C		-1.8880		-0.3088		0.9704		C.3		1		UNL1		-0.4126
15		C		-2.4244		-1.3026		-0.0561		C.ar		1		UNL1		0.1243
16		C		-3.0519		-0.8903		-1.2137		C.ar		1		UNL1		-0.1968
17		C		-3.5505		-1.8183		-2.1601		C.ar		1		UNL1		-0.1360
18		C		-3.4192		-3.1677		-1.9447		C.ar		1		UNL1		-0.1908
19		C		-2.7814		-3.6476		-0.7691		C.ar		1		UNL1		0.1369
20		C		-2.6358		-5.0391		-0.5246		C.ar		1		UNL1		-0.1946
21		C		-2.0186		-5.5007		0.6158		C.ar		1		UNL1		-0.1333
22		C		-1.5172		-4.5809		1.5651		C.ar		1		UNL1		-0.1340
23		C		-1.6423		-3.2240		1.3575		C.ar		1		UNL1		-0.1972
24		C		-2.2744		-2.7094		0.1916		C.ar		1		UNL1		0.0717
25		C		-3.1023		1.9111		0.9683		C.ar		1		UNL1		0.0567
26		C		-4.2864		1.3875		1.7386		C.3		1		UNL1		-0.5384
27		C		-3.1216		3.3254		0.6161		C.ar		1		UNL1		0.5728
28		O		-3.9939		4.1439		0.8795		O.2		1		UNL1		-0.5238
29		N		-1.9758		3.7365		-0.1045		N.ar		1		UNL1		-0.6524
30		C		4.1070		0.9783		1.2365		C.ar		1		UNL1		-0.1614
31		C		5.0812		0.0085		1.3814		C.ar		1		UNL1		-0.1731
32		H		5.7641		-3.3778		-0.6908		H		1		UNL1		0.1598
33		H		7.4256		-3.3729		-0.0361		H		1		UNL1		0.1778
34		H		6.9885		-2.2529		-1.3565		H		1		UNL1		0.1582
35		H		4.7927		-1.4819		-1.6824		H		1		UNL1		0.1399
36		H		3.0771		0.2331		-1.9244		H		1		UNL1		0.1370
37		H		2.2446		2.4787		-2.1945		H		1		UNL1		0.1979
38		H		1.0249		1.3490		-1.5711		H		1		UNL1		0.2314
39		H		-2.3819		-0.4868		1.9333		H		1		UNL1		0.1671
40		H		-0.8197		-0.5011		1.1265		H		1		UNL1		0.1784
41		H		-3.1701		0.1704		-1.4105		H		1		UNL1		0.1336
42		H		-4.0390		-1.4501		-3.0583		H		1		UNL1		0.1306
43		H		-3.8004		-3.8867		-2.6660		H		1		UNL1		0.1278
44		H		-3.0256		-5.7381		-1.2611		H		1		UNL1		0.1293
45		H		-1.9157		-6.5684		0.7895		H		1		UNL1		0.1293
46		H		-1.0303		-4.9471		2.4650		H		1		UNL1		0.1294
47		H		-1.2491		-2.5381		2.1005		H		1		UNL1		0.1340
48		H		-4.0666		1.3044		2.8117		H		1		UNL1		0.1647
49		H		-4.5982		0.4004		1.3837		H		1		UNL1		0.1636
50		H		-5.1228		2.0821		1.6327		H		1		UNL1		0.1907
51		H		-1.9414		4.7255		-0.3305		H		1		UNL1		0.3541
52		H		3.8954		1.6764		2.0396		H		1		UNL1		0.1686
53		H		5.6597		-0.0827		2.2952		H		1		UNL1		0.1491
@<TRIPOS>BOND
1		42		17		1
2		43		18		1
3		37		9		1
4		17		18		ar
5		17		16		ar
6		18		19		ar
7		36		5		1
8		35		4		1
9		38		9		1
10		41		16		1
11		10		9		1
12		10		11		1
13		9		7		1
14		34		1		1
15		44		20		1
16		16		15		ar
17		5		4		ar
18		5		6		ar
19		4		3		ar
20		19		20		ar
21		19		24		ar
22		32		1		1
23		20		21		ar
24		1		33		1
25		1		2		1
26		11		12		ar
27		11		29		ar
28		51		29		1
29		12		13		ar
30		29		27		ar
31		15		24		ar
32		15		14		1
33		7		6		1
34		7		8		2
35		6		30		ar
36		24		23		ar
37		3		2		1
38		3		31		ar
39		13		25		ar
40		13		14		1
41		21		45		1
42		21		22		ar
43		27		28		2
44		27		25		ar
45		25		26		1
46		14		40		1
47		14		39		1
48		30		31		ar
49		30		52		1
50		23		22		ar
51		23		47		1
52		31		53		1
53		49		26		1
54		22		46		1
55		50		26		1
56		26		48		1

