@<TRIPOS>MOLECULE
HYP-2005-CJCU-254-19
 44 46 0 0 0
SMALL
MULLIKEN_CHARGES
****
Gaussian 16 #p B3LYP/6-31G* opt
@<TRIPOS>ATOM
1		C		1.2004		-3.6113		1.3852		C.3		1		UNL1		-0.4466
2		C		0.7220		-2.6750		0.2599		C.3		1		UNL1		-0.3350
3		C		1.6830		-1.5379		-0.0003		C.ar		1		UNL1		0.0051
4		C		1.5560		-0.2791		0.5086		C.ar		1		UNL1		0.3255
5		C		0.3468		0.1139		1.3486		C.3		1		UNL1		-0.4363
6		C		-0.9636		0.2323		0.5754		C.ar		1		UNL1		0.1811
7		C		-1.0301		0.9500		-0.6511		C.ar		1		UNL1		-0.1763
8		C		-2.2238		1.0870		-1.3198		C.ar		1		UNL1		-0.1973
9		C		-3.4250		0.5245		-0.8103		C.ar		1		UNL1		0.1382
10		C		-4.6725		0.6495		-1.4774		C.ar		1		UNL1		-0.1917
11		C		-5.8140		0.0902		-0.9480		C.ar		1		UNL1		-0.1345
12		C		-5.7588		-0.6218		0.2755		C.ar		1		UNL1		-0.1368
13		C		-4.5640		-0.7611		0.9457		C.ar		1		UNL1		-0.1904
14		C		-3.3689		-0.1952		0.4261		C.ar		1		UNL1		0.1434
15		C		-2.1187		-0.3221		1.0889		C.ar		1		UNL1		-0.2748
16		N		2.5355		0.7041		0.2660		N.ar		1		UNL1		-0.5740
17		C		2.4958		2.0197		0.8776		C.3		1		UNL1		0.0758
18		O		1.4716		2.7820		0.2768		O.3		1		UNL1		-0.4533
19		C		1.4304		4.1111		0.7691		C.3		1		UNL1		-0.2056
20		C		3.6383		0.4759		-0.5786		C.ar		1		UNL1		0.7851
21		O		4.4816		1.3224		-0.8294		O.2		1		UNL1		-0.5151
22		N		3.7020		-0.8013		-1.0865		N.ar		1		UNL1		-0.6994
23		C		2.8315		-1.8707		-0.8434		C.ar		1		UNL1		0.6058
24		O		3.0580		-2.9671		-1.3381		O.2		1		UNL1		-0.5118
25		H		2.1757		-4.0407		1.1370		H		1		UNL1		0.1714
26		H		0.4924		-4.4361		1.5258		H		1		UNL1		0.1462
27		H		1.2941		-3.0795		2.3401		H		1		UNL1		0.1334
28		H		0.6395		-3.2576		-0.6634		H		1		UNL1		0.1723
29		H		-0.2764		-2.2942		0.4854		H		1		UNL1		0.1515
30		H		0.5258		1.0616		1.8587		H		1		UNL1		0.1813
31		H		0.2232		-0.6374		2.1352		H		1		UNL1		0.1742
32		H		-0.1296		1.4049		-1.0487		H		1		UNL1		0.1571
33		H		-2.2609		1.6371		-2.2573		H		1		UNL1		0.1327
34		H		-4.7109		1.1961		-2.4169		H		1		UNL1		0.1313
35		H		-6.7628		0.1924		-1.4676		H		1		UNL1		0.1312
36		H		-6.6660		-1.0593		0.6835		H		1		UNL1		0.1312
37		H		-4.5198		-1.3085		1.8845		H		1		UNL1		0.1289
38		H		-2.0857		-0.8742		2.0268		H		1		UNL1		0.1238
39		H		3.4757		2.4722		0.7078		H		1		UNL1		0.1975
40		H		2.3257		1.9231		1.9596		H		1		UNL1		0.1403
41		H		0.6117		4.6133		0.2502		H		1		UNL1		0.1740
42		H		1.2375		4.1376		1.8531		H		1		UNL1		0.1369
43		H		2.3707		4.6445		0.5659		H		1		UNL1		0.1498
44		H		4.4994		-0.9928		-1.6824		H		1		UNL1		0.3539
@<TRIPOS>BOND
1		34		10		1
2		33		8		1
3		44		22		1
4		10		11		ar
5		10		9		ar
6		35		11		1
7		24		23		2
8		8		9		ar
9		8		7		ar
10		22		23		ar
11		22		20		ar
12		32		7		1
13		11		12		ar
14		23		3		ar
15		21		20		2
16		9		14		ar
17		28		2		1
18		7		6		ar
19		20		16		ar
20		3		2		1
21		3		4		ar
22		41		19		1
23		2		29		1
24		2		1		1
25		16		4		ar
26		16		17		1
27		12		36		1
28		12		13		ar
29		18		19		1
30		18		17		1
31		14		13		ar
32		14		15		ar
33		4		5		1
34		43		19		1
35		6		15		ar
36		6		5		1
37		39		17		1
38		19		42		1
39		17		40		1
40		13		37		1
41		15		38		1
42		25		1		1
43		5		30		1
44		5		31		1
45		1		26		1
46		1		27		1

