@<TRIPOS>MOLECULE
HYP-2004-BMCL-3173-4J
 52 55 0 0 0
SMALL
MULLIKEN_CHARGES
****
Gaussian 16 #p B3LYP/6-31G* opt
@<TRIPOS>ATOM
1		C		-4.2246		3.5713		-0.1525		C.3		1		UNL1		-0.4471
2		C		-3.4939		2.4049		-0.8436		C.3		1		UNL1		-0.3397
3		C		-2.0515		2.2796		-0.4174		C.ar		1		UNL1		0.0488
4		C		-1.5792		1.4032		0.5299		C.ar		1		UNL1		0.2363
5		C		-2.4696		0.4280		1.2786		C.3		1		UNL1		-0.4162
6		C		-2.6607		-0.9069		0.5560		C.ar		1		UNL1		0.1036
7		C		-1.5401		-1.5962		0.1276		C.ar		1		UNL1		-0.2084
8		C		-1.6420		-2.8369		-0.5397		C.ar		1		UNL1		-0.1355
9		C		-2.8745		-3.3944		-0.7806		C.ar		1		UNL1		-0.1934
10		C		-4.0561		-2.7366		-0.3513		C.ar		1		UNL1		0.1410
11		C		-5.3349		-3.3113		-0.5848		C.ar		1		UNL1		-0.1949
12		C		-6.4858		-2.6893		-0.1619		C.ar		1		UNL1		-0.1333
13		C		-6.4015		-1.4545		0.5219		C.ar		1		UNL1		-0.1374
14		C		-5.1783		-0.8684		0.7619		C.ar		1		UNL1		-0.2007
15		C		-3.9612		-1.4743		0.3341		C.ar		1		UNL1		0.0697
16		N		-0.2439		1.3255		0.8904		N.ar		1		UNL1		-0.5057
17		C		0.5987		2.0954		0.2828		C.ar		1		UNL1		0.3410
18		S		2.3494		2.0875		0.6608		S.3		1		UNL1		0.1560
19		C		2.4863		0.4968		1.5775		C.3		1		UNL1		-0.5495
20		C		2.9104		-0.6471		0.6555		C.2		1		UNL1		0.4248
21		O		2.0635		-1.4227		0.2369		O.2		1		UNL1		-0.4436
22		C		4.3464		-0.7974		0.2775		C.ar		1		UNL1		0.0823
23		C		4.6914		-1.8646		-0.5712		C.ar		1		UNL1		-0.1559
24		C		6.0078		-2.0712		-0.9614		C.ar		1		UNL1		-0.1960
25		C		6.9849		-1.1943		-0.4947		C.ar		1		UNL1		0.3950
26		F		8.2620		-1.3866		-0.8673		F		1		UNL1		-0.2848
27		C		6.6837		-0.1263		0.3439		C.ar		1		UNL1		-0.2022
28		C		5.3589		0.0657		0.7280		C.ar		1		UNL1		-0.1778
29		N		0.2288		2.9981		-0.6633		N.ar		1		UNL1		-0.6530
30		C		-1.1148		3.1831		-1.0727		C.ar		1		UNL1		0.5811
31		O		-1.3735		4.0332		-1.9158		O.2		1		UNL1		-0.5236
32		H		-5.2583		3.6428		-0.5091		H		1		UNL1		0.1467
33		H		-4.2491		3.4409		0.9361		H		1		UNL1		0.1375
34		H		-3.7233		4.5190		-0.3716		H		1		UNL1		0.1709
35		H		-3.5093		2.5786		-1.9252		H		1		UNL1		0.1708
36		H		-4.0266		1.4667		-0.6646		H		1		UNL1		0.1542
37		H		-3.4281		0.9055		1.4806		H		1		UNL1		0.1624
38		H		-1.9973		0.2459		2.2507		H		1		UNL1		0.1754
39		H		-0.5512		-1.1844		0.3061		H		1		UNL1		0.1763
40		H		-0.7337		-3.3404		-0.8585		H		1		UNL1		0.1360
41		H		-2.9646		-4.3476		-1.2965		H		1		UNL1		0.1261
42		H		-5.3838		-4.2639		-1.1075		H		1		UNL1		0.1287
43		H		-7.4560		-3.1421		-0.3474		H		1		UNL1		0.1286
44		H		-7.3095		-0.9643		0.8631		H		1		UNL1		0.1280
45		H		-5.1544		0.0735		1.2991		H		1		UNL1		0.1311
46		H		3.1843		0.6677		2.3998		H		1		UNL1		0.1977
47		H		1.4898		0.2846		1.9699		H		1		UNL1		0.2529
48		H		3.9011		-2.5237		-0.9140		H		1		UNL1		0.1767
49		H		6.2906		-2.8898		-1.6147		H		1		UNL1		0.1604
50		H		7.4773		0.5318		0.6809		H		1		UNL1		0.1588
51		H		5.1273		0.9014		1.3804		H		1		UNL1		0.1461
52		H		0.9111		3.5770		-1.1429		H		1		UNL1		0.3542
@<TRIPOS>BOND
1		35		2		1
2		31		30		2
3		49		24		1
4		41		9		1
5		52		29		1
6		42		11		1
7		30		29		ar
8		30		3		ar
9		24		23		ar
10		24		25		ar
11		48		23		1
12		26		25		1
13		40		8		1
14		2		36		1
15		2		3		1
16		2		1		1
17		9		8		ar
18		9		10		ar
19		29		17		ar
20		11		10		ar
21		11		12		ar
22		23		22		ar
23		8		7		ar
24		32		1		1
25		25		27		ar
26		3		4		ar
27		34		1		1
28		10		15		ar
29		43		12		1
30		12		13		ar
31		1		33		1
32		7		39		1
33		7		6		ar
34		21		20		2
35		22		20		1
36		22		28		ar
37		17		18		1
38		17		16		ar
39		15		6		ar
40		15		14		ar
41		27		50		1
42		27		28		ar
43		13		14		ar
44		13		44		1
45		4		16		ar
46		4		5		1
47		6		5		1
48		20		19		1
49		18		19		1
50		28		51		1
51		14		45		1
52		5		37		1
53		5		38		1
54		19		47		1
55		19		46		1

