@<TRIPOS>MOLECULE
HYP-2005-CJCU-254-25
 57 60 0 0 0
SMALL
MULLIKEN_CHARGES
****
Gaussian 16 #p B3LYP/6-31G* opt
@<TRIPOS>ATOM
1		C		-0.6445		4.5562		3.6282		C.3		1		UNL1		-0.4433
2		C		0.0692		3.8901		2.4485		C.3		1		UNL1		-0.2526
3		C		-0.8972		3.5255		1.3033		C.3		1		UNL1		-0.3364
4		C		-0.2050		2.9273		0.0988		C.ar		1		UNL1		-0.0255
5		C		-0.0430		1.5933		-0.1348		C.ar		1		UNL1		0.3496
6		C		-0.5566		0.5342		0.8203		C.3		1		UNL1		-0.4593
7		C		-1.8569		-0.1506		0.4086		C.ar		1		UNL1		0.1666
8		C		-2.9102		0.5792		-0.2077		C.ar		1		UNL1		-0.1814
9		C		-4.1015		-0.0314		-0.5251		C.ar		1		UNL1		-0.1938
10		C		-4.3192		-1.4070		-0.2477		C.ar		1		UNL1		0.1368
11		C		-5.5369		-2.0673		-0.5626		C.ar		1		UNL1		-0.1906
12		C		-5.7073		-3.4033		-0.2776		C.ar		1		UNL1		-0.1343
13		C		-4.6649		-4.1414		0.3361		C.ar		1		UNL1		-0.1360
14		C		-3.4725		-3.5304		0.6522		C.ar		1		UNL1		-0.1904
15		C		-3.2648		-2.1528		0.3717		C.ar		1		UNL1		0.1448
16		C		-2.0471		-1.4912		0.6821		C.ar		1		UNL1		-0.2744
17		N		0.6133		1.1279		-1.2859		N.ar		1		UNL1		-0.5707
18		C		0.8609		-0.2846		-1.5074		C.3		1		UNL1		0.0820
19		O		1.9306		-0.6962		-0.6742		O.3		1		UNL1		-0.4750
20		C		2.3826		-2.0139		-0.9797		C.3		1		UNL1		-0.0944
21		C		3.5842		-2.3411		-0.1266		C.ar		1		UNL1		0.1341
22		C		3.7111		-3.6005		0.4676		C.ar		1		UNL1		-0.1833
23		C		4.8440		-3.9215		1.2182		C.ar		1		UNL1		-0.1286
24		C		5.8571		-2.9781		1.3901		C.ar		1		UNL1		-0.1268
25		C		5.7329		-1.7148		0.8059		C.ar		1		UNL1		-0.1324
26		C		4.6059		-1.3990		0.0487		C.ar		1		UNL1		-0.1590
27		C		1.2050		1.9953		-2.2189		C.ar		1		UNL1		0.7896
28		O		1.8214		1.6110		-3.1993		O.2		1		UNL1		-0.5145
29		N		1.0143		3.3317		-1.9407		N.ar		1		UNL1		-0.7024
30		C		0.3584		3.8990		-0.8426		C.ar		1		UNL1		0.6085
31		O		0.2935		5.1163		-0.7305		O.2		1		UNL1		-0.5137
32		H		-1.4107		3.8974		4.0562		H		1		UNL1		0.1384
33		H		-1.1404		5.4831		3.3160		H		1		UNL1		0.1508
34		H		0.0614		4.8086		4.4274		H		1		UNL1		0.1458
35		H		0.8386		4.5629		2.0517		H		1		UNL1		0.1591
36		H		0.5906		2.9851		2.7903		H		1		UNL1		0.1302
37		H		-1.3958		4.4428		0.9712		H		1		UNL1		0.1702
38		H		-1.6824		2.8596		1.6779		H		1		UNL1		0.1375
39		H		0.2247		-0.2181		0.9644		H		1		UNL1		0.1976
40		H		-0.6992		1.0088		1.7950		H		1		UNL1		0.1888
41		H		-2.7648		1.6312		-0.4361		H		1		UNL1		0.1412
42		H		-4.8967		0.5400		-0.9983		H		1		UNL1		0.1367
43		H		-6.3346		-1.4975		-1.0334		H		1		UNL1		0.1338
44		H		-6.6434		-3.8979		-0.5222		H		1		UNL1		0.1339
45		H		-4.8118		-5.1951		0.5568		H		1		UNL1		0.1336
46		H		-2.6720		-4.0956		1.1241		H		1		UNL1		0.1306
47		H		-1.2519		-2.0650		1.1553		H		1		UNL1		0.1293
48		H		-0.0479		-0.8543		-1.2858		H		1		UNL1		0.1575
49		H		1.1214		-0.3996		-2.5624		H		1		UNL1		0.1897
50		H		2.6428		-2.0655		-2.0506		H		1		UNL1		0.1521
51		H		1.5800		-2.7489		-0.8067		H		1		UNL1		0.1315
52		H		2.9190		-4.3361		0.3440		H		1		UNL1		0.1225
53		H		4.9294		-4.9044		1.6740		H		1		UNL1		0.1305
54		H		6.7374		-3.2233		1.9782		H		1		UNL1		0.1310
55		H		6.5173		-0.9744		0.9391		H		1		UNL1		0.1335
56		H		4.5036		-0.4161		-0.4013		H		1		UNL1		0.1478
57		H		1.4271		3.9775		-2.6043		H		1		UNL1		0.3537
@<TRIPOS>BOND
1		28		27		2
2		57		29		1
3		49		18		1
4		27		29		ar
5		27		17		ar
6		50		20		1
7		29		30		ar
8		18		17		1
9		18		48		1
10		18		19		1
11		17		5		ar
12		43		11		1
13		42		9		1
14		20		51		1
15		20		19		1
16		20		21		1
17		30		31		2
18		30		4		ar
19		11		12		ar
20		11		10		ar
21		9		10		ar
22		9		8		ar
23		44		12		1
24		41		8		1
25		56		26		1
26		12		13		ar
27		10		15		ar
28		8		7		ar
29		5		4		ar
30		5		6		1
31		21		26		ar
32		21		22		ar
33		26		25		ar
34		4		3		1
35		13		45		1
36		13		14		ar
37		52		22		1
38		15		14		ar
39		15		16		ar
40		7		16		ar
41		7		6		1
42		22		23		ar
43		14		46		1
44		16		47		1
45		25		55		1
46		25		24		ar
47		6		39		1
48		6		40		1
49		37		3		1
50		23		24		ar
51		23		53		1
52		3		38		1
53		3		2		1
54		24		54		1
55		35		2		1
56		2		36		1
57		2		1		1
58		33		1		1
59		1		32		1
60		1		34		1

