@<TRIPOS>MOLECULE
HYP-2005-CJCU-254-13
 54 57 0 0 0
SMALL
MULLIKEN_CHARGES
****
Gaussian 16 #p B3LYP/6-31G* opt
@<TRIPOS>ATOM
1		C		4.4455		-2.5130		0.2273		C.3		1		UNL1		-0.4461
2		C		3.4426		-1.8149		-0.7094		C.3		1		UNL1		-0.3325
3		C		3.1937		-0.3707		-0.3365		C.ar		1		UNL1		0.0028
4		C		2.1348		0.0663		0.4040		C.ar		1		UNL1		0.3196
5		C		1.0866		-0.9085		0.9059		C.3		1		UNL1		-0.4492
6		C		0.0223		-1.3406		-0.1010		C.ar		1		UNL1		0.1354
7		C		-0.0743		-0.7783		-1.3562		C.ar		1		UNL1		-0.1757
8		C		-1.0633		-1.1931		-2.2795		C.ar		1		UNL1		-0.1327
9		C		-1.9600		-2.1765		-1.9416		C.ar		1		UNL1		-0.1916
10		C		-1.9094		-2.7843		-0.6583		C.ar		1		UNL1		0.1338
11		C		-2.8298		-3.8004		-0.2866		C.ar		1		UNL1		-0.1939
12		C		-2.7815		-4.3849		0.9584		C.ar		1		UNL1		-0.1325
13		C		-1.8018		-3.9724		1.8903		C.ar		1		UNL1		-0.1330
14		C		-0.8924		-2.9905		1.5607		C.ar		1		UNL1		-0.1989
15		C		-0.9091		-2.3641		0.2827		C.ar		1		UNL1		0.0663
16		N		1.9860		1.4252		0.7339		N.ar		1		UNL1		-0.5696
17		C		0.8705		1.9258		1.5182		C.3		1		UNL1		0.0893
18		O		-0.3031		1.8715		0.7394		O.3		1		UNL1		-0.4656
19		C		-1.4223		2.4389		1.4250		C.3		1		UNL1		-0.1088
20		C		-2.6356		2.3935		0.5316		C.ar		1		UNL1		0.1473
21		C		-3.1655		1.1634		0.1202		C.ar		1		UNL1		-0.1588
22		C		-4.2906		1.1190		-0.7009		C.ar		1		UNL1		-0.1348
23		C		-4.9051		2.3039		-1.1151		C.ar		1		UNL1		-0.1267
24		C		-4.3842		3.5326		-0.7094		C.ar		1		UNL1		-0.1294
25		C		-3.2517		3.5747		0.1066		C.ar		1		UNL1		-0.1785
26		C		2.8853		2.4092		0.2816		C.ar		1		UNL1		0.7881
27		O		2.7687		3.5975		0.5345		O.2		1		UNL1		-0.5142
28		N		3.9338		1.9147		-0.4618		N.ar		1		UNL1		-0.7000
29		C		4.1956		0.5842		-0.8089		C.ar		1		UNL1		0.6047
30		O		5.1921		0.3065		-1.4634		O.2		1		UNL1		-0.5123
31		H		4.6183		-3.5460		-0.0951		H		1		UNL1		0.1477
32		H		4.0817		-2.5382		1.2618		H		1		UNL1		0.1352
33		H		5.4057		-1.9885		0.2162		H		1		UNL1		0.1717
34		H		3.8530		-1.8263		-1.7245		H		1		UNL1		0.1726
35		H		2.5028		-2.3726		-0.7432		H		1		UNL1		0.1494
36		H		1.6220		-1.7985		1.2535		H		1		UNL1		0.1851
37		H		0.5862		-0.5110		1.7925		H		1		UNL1		0.1743
38		H		0.6171		0.0042		-1.6489		H		1		UNL1		0.1405
39		H		-1.1055		-0.7226		-3.2576		H		1		UNL1		0.1377
40		H		-2.7194		-2.5036		-2.6477		H		1		UNL1		0.1311
41		H		-3.5793		-4.1100		-1.0113		H		1		UNL1		0.1326
42		H		-3.4926		-5.1609		1.2279		H		1		UNL1		0.1332
43		H		-1.7656		-4.4338		2.8735		H		1		UNL1		0.1320
44		H		-0.1519		-2.6936		2.2962		H		1		UNL1		0.1277
45		H		0.7619		1.3314		2.4370		H		1		UNL1		0.1362
46		H		1.1212		2.9541		1.7902		H		1		UNL1		0.1943
47		H		-1.1974		3.4773		1.7129		H		1		UNL1		0.1395
48		H		-1.6041		1.8730		2.3551		H		1		UNL1		0.1328
49		H		-2.6881		0.2402		0.4360		H		1		UNL1		0.1477
50		H		-4.6880		0.1582		-1.0166		H		1		UNL1		0.1318
51		H		-5.7852		2.2682		-1.7519		H		1		UNL1		0.1296
52		H		-4.8542		4.4585		-1.0302		H		1		UNL1		0.1311
53		H		-2.8422		4.5341		0.4145		H		1		UNL1		0.1296
54		H		4.6015		2.6066		-0.7832		H		1		UNL1		0.3541
@<TRIPOS>BOND
1		39		8		1
2		40		9		1
3		8		9		ar
4		8		7		ar
5		9		10		ar
6		51		23		1
7		34		2		1
8		38		7		1
9		30		29		2
10		7		6		ar
11		23		24		ar
12		23		22		ar
13		52		24		1
14		50		22		1
15		41		11		1
16		29		28		ar
17		29		3		ar
18		54		28		1
19		35		2		1
20		2		3		1
21		2		1		1
22		24		25		ar
23		22		21		ar
24		10		11		ar
25		10		15		ar
26		28		26		ar
27		3		4		ar
28		11		12		ar
29		6		15		ar
30		6		5		1
31		31		1		1
32		25		53		1
33		25		20		ar
34		21		49		1
35		21		20		ar
36		33		1		1
37		1		32		1
38		26		27		2
39		26		16		ar
40		15		14		ar
41		4		16		ar
42		4		5		1
43		20		19		1
44		16		17		1
45		18		19		1
46		18		17		1
47		5		36		1
48		5		37		1
49		12		42		1
50		12		13		ar
51		19		47		1
52		19		48		1
53		17		46		1
54		17		45		1
55		14		13		ar
56		14		44		1
57		13		43		1

