@<TRIPOS>MOLECULE
HYP-2005-CJCU-254-9
 47 49 0 0 0
SMALL
MULLIKEN_CHARGES
****
Gaussian 16 #p B3LYP/6-31G* opt
@<TRIPOS>ATOM
1		C		3.8496		-3.4119		-0.6172		C.3		1		UNL1		-0.4672
2		C		2.4832		-2.8540		-0.2381		C.3		1		UNL1		-0.0382
3		O		1.8873		-2.0641		-1.2838		O.3		1		UNL1		-0.4631
4		C		2.4239		-0.7822		-1.4689		C.3		1		UNL1		0.0515
5		N		1.9901		0.2102		-0.4643		N.ar		1		UNL1		-0.5635
6		C		0.7264		0.8444		-0.5261		C.ar		1		UNL1		0.3202
7		C		-0.2585		0.2154		-1.5176		C.3		1		UNL1		-0.4730
8		C		-1.7117		0.0284		-1.1006		C.ar		1		UNL1		0.1124
9		C		-2.7093		0.5890		-1.8755		C.ar		1		UNL1		-0.2075
10		C		-4.0792		0.4046		-1.5769		C.ar		1		UNL1		-0.1276
11		C		-4.4505		-0.3509		-0.4913		C.ar		1		UNL1		-0.1905
12		C		-3.4669		-0.9697		0.3255		C.ar		1		UNL1		0.1425
13		C		-3.8348		-1.7727		1.4384		C.ar		1		UNL1		-0.1957
14		C		-2.8817		-2.3933		2.2123		C.ar		1		UNL1		-0.1294
15		C		-1.5113		-2.2414		1.8976		C.ar		1		UNL1		-0.1437
16		C		-1.1200		-1.4640		0.8298		C.ar		1		UNL1		-0.1913
17		C		-2.0755		-0.7953		0.0155		C.ar		1		UNL1		0.0839
18		C		0.4656		1.9463		0.2358		C.ar		1		UNL1		0.0027
19		C		-0.7839		2.7962		0.1882		C.3		1		UNL1		-0.3392
20		C		-0.6149		4.0323		-0.7154		C.3		1		UNL1		-0.4441
21		C		1.4805		2.4322		1.1787		C.ar		1		UNL1		0.6040
22		O		1.3653		3.4153		1.8985		O.2		1		UNL1		-0.5111
23		N		2.6438		1.6580		1.2435		N.ar		1		UNL1		-0.6974
24		C		2.9760		0.5786		0.4601		C.ar		1		UNL1		0.7800
25		O		4.0502		0.0003		0.5656		O.2		1		UNL1		-0.5308
26		H		3.7947		-3.9576		-1.5650		H		1		UNL1		0.1552
27		H		4.1930		-4.1036		0.1609		H		1		UNL1		0.1502
28		H		4.5984		-2.6186		-0.7022		H		1		UNL1		0.1744
29		H		2.5502		-2.2661		0.6855		H		1		UNL1		0.1516
30		H		1.7665		-3.6641		-0.0749		H		1		UNL1		0.1525
31		H		3.5127		-0.7792		-1.4333		H		1		UNL1		0.1969
32		H		2.0898		-0.4501		-2.4523		H		1		UNL1		0.1704
33		H		-0.2452		0.8174		-2.4354		H		1		UNL1		0.1742
34		H		0.1130		-0.7740		-1.7909		H		1		UNL1		0.2164
35		H		-2.4359		1.2015		-2.7317		H		1		UNL1		0.1273
36		H		-4.8311		0.8698		-2.2082		H		1		UNL1		0.1335
37		H		-5.5002		-0.4930		-0.2462		H		1		UNL1		0.1326
38		H		-4.8918		-1.8914		1.6649		H		1		UNL1		0.1321
39		H		-3.1777		-3.0050		3.0602		H		1		UNL1		0.1327
40		H		-0.7616		-2.7439		2.5029		H		1		UNL1		0.1303
41		H		-0.0657		-1.3750		0.5956		H		1		UNL1		0.1534
42		H		-1.6426		2.2149		-0.1429		H		1		UNL1		0.1647
43		H		-0.9916		3.1376		1.2071		H		1		UNL1		0.1701
44		H		-1.5247		4.6434		-0.7001		H		1		UNL1		0.1460
45		H		-0.4185		3.7456		-1.7557		H		1		UNL1		0.1306
46		H		0.2159		4.6546		-0.3689		H		1		UNL1		0.1682
47		H		3.3503		1.9543		1.9075		H		1		UNL1		0.3529
@<TRIPOS>BOND
1		35		9		1
2		32		4		1
3		33		7		1
4		36		10		1
5		9		10		ar
6		9		8		ar
7		34		7		1
8		45		20		1
9		10		11		ar
10		26		1		1
11		7		8		1
12		7		6		1
13		4		31		1
14		4		3		1
15		4		5		1
16		3		2		1
17		8		17		ar
18		20		44		1
19		20		46		1
20		20		19		1
21		28		1		1
22		1		2		1
23		1		27		1
24		6		5		ar
25		6		18		ar
26		11		37		1
27		11		12		ar
28		5		24		ar
29		2		30		1
30		2		29		1
31		42		19		1
32		17		12		ar
33		17		16		ar
34		19		18		1
35		19		43		1
36		18		21		ar
37		12		13		ar
38		24		25		2
39		24		23		ar
40		41		16		1
41		16		15		ar
42		21		23		ar
43		21		22		2
44		23		47		1
45		13		38		1
46		13		14		ar
47		15		14		ar
48		15		40		1
49		14		39		1

