@<TRIPOS>MOLECULE
HYP-2004-BMCL-3173-4E
 49 52 0 0 0
SMALL
MULLIKEN_CHARGES
****
Gaussian 16 #p B3LYP/6-31G* opt
@<TRIPOS>ATOM
1		C		3.8881		3.3205		0.3779		C.3		1		UNL1		-0.5404
2		C		2.4678		2.8880		0.1235		C.ar		1		UNL1		0.0600
3		C		2.1170		1.6949		-0.4592		C.ar		1		UNL1		0.2102
4		C		3.1437		0.6956		-0.9386		C.3		1		UNL1		-0.4112
5		C		3.5817		-0.3523		0.0811		C.ar		1		UNL1		0.1228
6		C		3.0568		-0.3959		1.3561		C.ar		1		UNL1		-0.1920
7		C		3.4675		-1.3728		2.2953		C.ar		1		UNL1		-0.1334
8		C		4.4103		-2.3101		1.9537		C.ar		1		UNL1		-0.1891
9		C		4.9821		-2.3121		0.6529		C.ar		1		UNL1		0.1369
10		C		5.9575		-3.2737		0.2776		C.ar		1		UNL1		-0.1936
11		C		6.5072		-3.2752		-0.9843		C.ar		1		UNL1		-0.1328
12		C		6.0990		-2.3068		-1.9297		C.ar		1		UNL1		-0.1332
13		C		5.1551		-1.3592		-1.5966		C.ar		1		UNL1		-0.1976
14		C		4.5662		-1.3250		-0.3023		C.ar		1		UNL1		0.0740
15		N		0.8062		1.3072		-0.6778		N.ar		1		UNL1		-0.5001
16		C		-0.1338		2.1148		-0.3060		C.ar		1		UNL1		0.3415
17		S		-1.8699		1.7545		-0.5436		S.3		1		UNL1		0.1588
18		C		-1.7926		-0.0112		-1.0670		C.3		1		UNL1		-0.5517
19		C		-2.5325		-0.9064		-0.0716		C.2		1		UNL1		0.4222
20		O		-1.8932		-1.5900		0.7104		O.2		1		UNL1		-0.4390
21		C		-4.0276		-0.9286		-0.0772		C.ar		1		UNL1		0.0822
22		C		-4.8056		-0.1694		-0.9643		C.ar		1		UNL1		-0.1785
23		C		-6.1973		-0.2294		-0.9245		C.ar		1		UNL1		-0.1339
24		C		-6.8129		-1.0607		0.0108		C.ar		1		UNL1		-0.0594
25		CL		-8.5631		-1.1446		0.0654		Cl		1		UNL1		-0.0017
26		C		-6.0614		-1.8282		0.9051		C.ar		1		UNL1		-0.1293
27		C		-4.6752		-1.7561		0.8550		C.ar		1		UNL1		-0.1517
28		N		0.1121		3.3210		0.2734		N.ar		1		UNL1		-0.6530
29		C		1.4159		3.8135		0.5268		C.ar		1		UNL1		0.5727
30		O		1.5515		4.9136		1.0457		O.2		1		UNL1		-0.5191
31		H		4.4936		2.5036		0.7823		H		1		UNL1		0.1692
32		H		3.8927		4.1502		1.0882		H		1		UNL1		0.1928
33		H		4.3737		3.6740		-0.5418		H		1		UNL1		0.1648
34		H		4.0277		1.2358		-1.2982		H		1		UNL1		0.1663
35		H		2.7123		0.1865		-1.8092		H		1		UNL1		0.1772
36		H		2.3075		0.3301		1.6546		H		1		UNL1		0.1333
37		H		3.0263		-1.3727		3.2882		H		1		UNL1		0.1332
38		H		4.7311		-3.0634		2.6692		H		1		UNL1		0.1292
39		H		6.2632		-4.0152		1.0122		H		1		UNL1		0.1305
40		H		7.2523		-4.0177		-1.2567		H		1		UNL1		0.1302
41		H		6.5327		-2.3106		-2.9262		H		1		UNL1		0.1291
42		H		4.8566		-0.6283		-2.3410		H		1		UNL1		0.1301
43		H		-2.1941		-0.0841		-2.0807		H		1		UNL1		0.1984
44		H		-0.7329		-0.2765		-1.0679		H		1		UNL1		0.2589
45		H		-4.3387		0.4810		-1.6976		H		1		UNL1		0.1510
46		H		-6.7983		0.3587		-1.6094		H		1		UNL1		0.1650
47		H		-6.5612		-2.4674		1.6249		H		1		UNL1		0.1665
48		H		-4.0651		-2.3387		1.5372		H		1		UNL1		0.1780
49		H		-0.6431		3.9303		0.5723		H		1		UNL1		0.3556
@<TRIPOS>BOND
1		41		12		1
2		42		13		1
3		43		18		1
4		12		13		ar
5		12		11		ar
6		35		4		1
7		45		22		1
8		46		23		1
9		13		14		ar
10		34		4		1
11		40		11		1
12		44		18		1
13		18		17		1
14		18		19		1
15		11		10		ar
16		22		23		ar
17		22		21		ar
18		4		3		1
19		4		5		1
20		23		24		ar
21		15		3		ar
22		15		16		ar
23		17		16		1
24		33		1		1
25		3		2		ar
26		16		28		ar
27		14		5		ar
28		14		9		ar
29		21		19		1
30		21		27		ar
31		19		20		2
32		24		25		1
33		24		26		ar
34		5		6		ar
35		2		1		1
36		2		29		ar
37		28		29		ar
38		28		49		1
39		10		9		ar
40		10		39		1
41		1		31		1
42		1		32		1
43		29		30		2
44		9		8		ar
45		27		26		ar
46		27		48		1
47		26		47		1
48		6		36		1
49		6		7		ar
50		8		7		ar
51		8		38		1
52		7		37		1

