@<TRIPOS>MOLECULE
HYP-2005-CJCU-254-14
 57 60 0 0 0
SMALL
MULLIKEN_CHARGES
****
Gaussian 16 #p B3LYP/6-31G* opt
@<TRIPOS>ATOM
1		C		3.6394		1.9514		3.9005		C.3		1		UNL1		-0.4432
2		C		2.6044		2.2252		2.8056		C.3		1		UNL1		-0.2530
3		C		3.0623		1.7215		1.4218		C.3		1		UNL1		-0.3360
4		C		2.0846		2.0324		0.3119		C.ar		1		UNL1		-0.0129
5		C		1.1319		1.1735		-0.1485		C.ar		1		UNL1		0.3297
6		C		0.9256		-0.2031		0.4452		C.3		1		UNL1		-0.4678
7		C		1.6014		-1.3584		-0.2894		C.ar		1		UNL1		0.1098
8		C		2.5425		-1.1397		-1.2756		C.ar		1		UNL1		-0.1981
9		C		3.1806		-2.2124		-1.9442		C.ar		1		UNL1		-0.1353
10		C		2.8746		-3.5105		-1.6188		C.ar		1		UNL1		-0.1883
11		C		1.9192		-3.7922		-0.6053		C.ar		1		UNL1		0.1364
12		C		1.5950		-5.1284		-0.2499		C.ar		1		UNL1		-0.1938
13		C		0.6754		-5.3986		0.7378		C.ar		1		UNL1		-0.1320
14		C		0.0381		-4.3342		1.4155		C.ar		1		UNL1		-0.1341
15		C		0.3278		-3.0258		1.0927		C.ar		1		UNL1		-0.2009
16		C		1.2701		-2.7077		0.0755		C.ar		1		UNL1		0.0733
17		N		0.2755		1.5288		-1.2041		N.ar		1		UNL1		-0.5640
18		C		-0.7613		0.6333		-1.6813		C.3		1		UNL1		0.0831
19		O		-1.8423		0.6560		-0.7667		O.3		1		UNL1		-0.4731
20		C		-2.9664		-0.0867		-1.2367		C.3		1		UNL1		-0.0969
21		C		-4.1105		0.0710		-0.2651		C.ar		1		UNL1		0.1346
22		C		-4.4383		1.3349		0.2425		C.ar		1		UNL1		-0.1594
23		C		-5.5171		1.4866		1.1122		C.ar		1		UNL1		-0.1326
24		C		-6.2866		0.3791		1.4787		C.ar		1		UNL1		-0.1268
25		C		-5.9664		-0.8820		0.9759		C.ar		1		UNL1		-0.1290
26		C		-4.8793		-1.0341		0.1124		C.ar		1		UNL1		-0.1839
27		C		0.2855		2.8075		-1.7842		C.ar		1		UNL1		0.7893
28		O		-0.4796		3.1510		-2.6704		O.2		1		UNL1		-0.5150
29		N		1.2556		3.6447		-1.2755		N.ar		1		UNL1		-0.7029
30		C		2.1805		3.3781		-0.2586		C.ar		1		UNL1		0.6068
31		O		2.9783		4.2406		0.0850		O.2		1		UNL1		-0.5131
32		H		4.5916		2.4463		3.6747		H		1		UNL1		0.1506
33		H		3.2948		2.3198		4.8733		H		1		UNL1		0.1451
34		H		3.8394		0.8773		4.0024		H		1		UNL1		0.1389
35		H		2.4123		3.3023		2.7365		H		1		UNL1		0.1596
36		H		1.6481		1.7528		3.0703		H		1		UNL1		0.1289
37		H		3.2719		0.6471		1.4644		H		1		UNL1		0.1414
38		H		4.0078		2.2163		1.1731		H		1		UNL1		0.1692
39		H		1.2819		-0.1812		1.4798		H		1		UNL1		0.1889
40		H		-0.1521		-0.3796		0.5131		H		1		UNL1		0.2035
41		H		2.8079		-0.1223		-1.5471		H		1		UNL1		0.1374
42		H		3.9142		-1.9965		-2.7159		H		1		UNL1		0.1364
43		H		3.3594		-4.3402		-2.1274		H		1		UNL1		0.1332
44		H		2.0933		-5.9397		-0.7754		H		1		UNL1		0.1337
45		H		0.4387		-6.4261		0.9999		H		1		UNL1		0.1341
46		H		-0.6847		-4.5496		2.1977		H		1		UNL1		0.1344
47		H		-0.1722		-2.2282		1.6321		H		1		UNL1		0.1388
48		H		-1.0727		1.0000		-2.6628		H		1		UNL1		0.1898
49		H		-0.3514		-0.3787		-1.7782		H		1		UNL1		0.1565
50		H		-2.7049		-1.1508		-1.3510		H		1		UNL1		0.1362
51		H		-3.2522		0.2868		-2.2347		H		1		UNL1		0.1506
52		H		-3.8346		2.1925		-0.0390		H		1		UNL1		0.1480
53		H		-5.7597		2.4711		1.5034		H		1		UNL1		0.1334
54		H		-7.1289		0.4996		2.1547		H		1		UNL1		0.1309
55		H		-6.5558		-1.7496		1.2605		H		1		UNL1		0.1304
56		H		-4.6268		-2.0210		-0.2696		H		1		UNL1		0.1253
57		H		1.2866		4.5725		-1.6831		H		1		UNL1		0.3535
@<TRIPOS>BOND
1		42		9		1
2		28		27		2
3		48		18		1
4		51		20		1
5		43		10		1
6		9		10		ar
7		9		8		ar
8		27		29		ar
9		27		17		ar
10		49		18		1
11		57		29		1
12		18		17		1
13		18		19		1
14		10		11		ar
15		41		8		1
16		50		20		1
17		8		7		ar
18		29		30		ar
19		20		19		1
20		20		21		1
21		17		5		ar
22		44		12		1
23		11		12		ar
24		11		16		ar
25		7		16		ar
26		7		6		1
27		56		26		1
28		21		26		ar
29		21		22		ar
30		30		31		2
31		30		4		ar
32		12		13		ar
33		5		4		ar
34		5		6		1
35		52		22		1
36		16		15		ar
37		26		25		ar
38		22		23		ar
39		4		3		1
40		6		40		1
41		6		39		1
42		13		45		1
43		13		14		ar
44		25		55		1
45		25		24		ar
46		15		14		ar
47		15		47		1
48		23		24		ar
49		23		53		1
50		38		3		1
51		14		46		1
52		3		37		1
53		3		2		1
54		24		54		1
55		35		2		1
56		2		36		1
57		2		1		1
58		32		1		1
59		1		34		1
60		1		33		1

