@<TRIPOS>MOLECULE
HYP-2004-BMCL-3173-4F
 43 45 0 0 0
SMALL
MULLIKEN_CHARGES
****
Gaussian 16 #p B3LYP/6-31G* opt
@<TRIPOS>ATOM
1		C		5.0125		-0.0564		2.3778		C.3		1		UNL1		-0.2284
2		O		4.5189		0.0649		1.0256		O.3		1		UNL1		-0.4597
3		C		4.8892		-0.9133		0.1621		C.2		1		UNL1		0.6393
4		O		5.6168		-1.8298		0.4563		O.2		1		UNL1		-0.4416
5		C		4.2634		-0.6964		-1.2037		C.3		1		UNL1		-0.5566
6		S		2.5272		-1.3129		-1.3384		S.3		1		UNL1		0.2153
7		C		1.5211		0.0931		-0.8820		C.ar		1		UNL1		0.3116
8		N		0.3239		0.1085		-1.3831		N.ar		1		UNL1		-0.5082
9		C		-0.5214		1.1364		-1.0078		C.ar		1		UNL1		0.2510
10		C		-1.9119		1.0498		-1.6225		C.3		1		UNL1		-0.4432
11		C		-3.0352		0.6481		-0.6712		C.ar		1		UNL1		0.1327
12		C		-3.9819		1.5875		-0.3094		C.ar		1		UNL1		-0.2104
13		C		-5.0556		1.2741		0.5567		C.ar		1		UNL1		-0.1310
14		C		-5.1846		0.0024		1.0589		C.ar		1		UNL1		-0.1919
15		C		-4.2518		-1.0089		0.7056		C.ar		1		UNL1		0.1427
16		C		-4.3856		-2.3343		1.1990		C.ar		1		UNL1		-0.1973
17		C		-3.4918		-3.3179		0.8433		C.ar		1		UNL1		-0.1310
18		C		-2.4203		-3.0126		-0.0274		C.ar		1		UNL1		-0.1411
19		C		-2.2569		-1.7362		-0.5211		C.ar		1		UNL1		-0.2085
20		C		-3.1590		-0.6923		-0.1720		C.ar		1		UNL1		0.0689
21		C		-0.1323		2.1694		-0.1861		C.ar		1		UNL1		0.0607
22		C		-1.0038		3.3316		0.2061		C.3		1		UNL1		-0.5369
23		C		1.2116		2.1530		0.3774		C.ar		1		UNL1		0.5663
24		O		1.7022		2.9689		1.1500		O.2		1		UNL1		-0.5286
25		N		1.9870		1.0428		-0.0342		N.ar		1		UNL1		-0.6602
26		H		6.1043		-0.0349		2.3782		H		1		UNL1		0.1830
27		H		4.6658		-0.9927		2.8207		H		1		UNL1		0.1848
28		H		4.6056		0.8022		2.9105		H		1		UNL1		0.1886
29		H		4.8246		-1.2918		-1.9257		H		1		UNL1		0.2284
30		H		4.3009		0.3550		-1.5004		H		1		UNL1		0.2165
31		H		-1.8492		0.3431		-2.4560		H		1		UNL1		0.1788
32		H		-2.1680		2.0257		-2.0509		H		1		UNL1		0.1610
33		H		-3.9051		2.5974		-0.7044		H		1		UNL1		0.1234
34		H		-5.7749		2.0457		0.8175		H		1		UNL1		0.1295
35		H		-6.0052		-0.2513		1.7259		H		1		UNL1		0.1287
36		H		-5.2165		-2.5581		1.8643		H		1		UNL1		0.1278
37		H		-3.6079		-4.3282		1.2266		H		1		UNL1		0.1283
38		H		-1.7179		-3.7925		-0.3098		H		1		UNL1		0.1300
39		H		-1.4201		-1.5210		-1.1765		H		1		UNL1		0.1714
40		H		-1.7575		3.0406		0.9474		H		1		UNL1		0.1788
41		H		-1.5398		3.7465		-0.6551		H		1		UNL1		0.1500
42		H		-0.3831		4.1151		0.6461		H		1		UNL1		0.1891
43		H		2.8946		0.9502		0.4211		H		1		UNL1		0.3879
@<TRIPOS>BOND
1		31		10		1
2		32		10		1
3		29		5		1
4		10		9		1
5		10		11		1
6		30		5		1
7		8		9		ar
8		8		7		ar
9		6		5		1
10		6		7		1
11		5		3		1
12		39		19		1
13		9		21		ar
14		7		25		ar
15		33		12		1
16		11		12		ar
17		11		20		ar
18		41		22		1
19		19		20		ar
20		19		18		ar
21		38		18		1
22		12		13		ar
23		21		22		1
24		21		23		ar
25		20		15		ar
26		25		23		ar
27		25		43		1
28		18		17		ar
29		3		4		2
30		3		2		1
31		22		42		1
32		22		40		1
33		23		24		2
34		13		34		1
35		13		14		ar
36		15		14		ar
37		15		16		ar
38		17		16		ar
39		17		37		1
40		2		1		1
41		14		35		1
42		16		36		1
43		1		26		1
44		1		27		1
45		1		28		1

