@<TRIPOS>MOLECULE
HYP-2004-BMCL-3173-4G
 46 48 0 0 0
SMALL
MULLIKEN_CHARGES
****
Gaussian 16 #p B3LYP/6-31G* opt
@<TRIPOS>ATOM
1		C		5.2399		-2.1455		1.6288		C.3		1		UNL1		-0.4645
2		C		4.1584		-1.0802		1.7146		C.3		1		UNL1		-0.0489
3		O		3.6265		-0.7627		0.4015		O.3		1		UNL1		-0.4362
4		C		2.6351		-1.5402		-0.0491		C.2		1		UNL1		0.6583
5		O		2.1756		-2.4944		0.5443		O.2		1		UNL1		-0.4765
6		C		2.1508		-1.1652		-1.4451		C.3		1		UNL1		-0.5249
7		S		2.4388		0.5413		-2.0203		S.3		1		UNL1		0.1787
8		C		1.2924		1.4153		-0.9778		C.ar		1		UNL1		0.3427
9		N		0.5594		0.8047		-0.1009		N.ar		1		UNL1		-0.5164
10		C		-0.3247		1.5596		0.6535		C.ar		1		UNL1		0.2577
11		C		-1.1711		0.7278		1.6039		C.3		1		UNL1		-0.4333
12		C		-2.3929		0.1063		0.9310		C.ar		1		UNL1		0.1202
13		C		-3.5760		0.8219		0.9128		C.ar		1		UNL1		-0.1978
14		C		-4.7435		0.3190		0.2954		C.ar		1		UNL1		-0.1301
15		C		-4.7269		-0.9178		-0.3032		C.ar		1		UNL1		-0.1925
16		C		-3.5435		-1.7018		-0.3027		C.ar		1		UNL1		0.1394
17		C		-3.5168		-2.9896		-0.9043		C.ar		1		UNL1		-0.1959
18		C		-2.3734		-3.7543		-0.8980		C.ar		1		UNL1		-0.1322
19		C		-1.1997		-3.2584		-0.2832		C.ar		1		UNL1		-0.1546
20		C		-1.1910		-2.0131		0.3064		C.ar		1		UNL1		-0.2023
21		C		-2.3521		-1.1905		0.3189		C.ar		1		UNL1		0.0758
22		C		-0.4346		2.9256		0.5370		C.ar		1		UNL1		0.0397
23		C		-1.3648		3.8155		1.3181		C.3		1		UNL1		-0.5261
24		C		0.3937		3.6191		-0.4438		C.ar		1		UNL1		0.5761
25		O		0.4090		4.8223		-0.6731		O.2		1		UNL1		-0.5210
26		N		1.2442		2.7609		-1.1753		N.ar		1		UNL1		-0.6546
27		H		4.8216		-3.0939		1.2804		H		1		UNL1		0.1769
28		H		5.6776		-2.3074		2.6204		H		1		UNL1		0.1559
29		H		6.0389		-1.8360		0.9473		H		1		UNL1		0.1611
30		H		4.5563		-0.1293		2.0755		H		1		UNL1		0.1609
31		H		3.3336		-1.3983		2.3564		H		1		UNL1		0.1744
32		H		2.6807		-1.7928		-2.1709		H		1		UNL1		0.2103
33		H		1.0871		-1.3995		-1.5013		H		1		UNL1		0.2423
34		H		-1.5151		1.3505		2.4329		H		1		UNL1		0.1604
35		H		-0.5302		-0.0468		2.0334		H		1		UNL1		0.1712
36		H		-3.6141		1.7977		1.3901		H		1		UNL1		0.1252
37		H		-5.6519		0.9154		0.3027		H		1		UNL1		0.1290
38		H		-5.6196		-1.3164		-0.7796		H		1		UNL1		0.1278
39		H		-4.4266		-3.3611		-1.3706		H		1		UNL1		0.1269
40		H		-2.3699		-4.7380		-1.3603		H		1		UNL1		0.1270
41		H		-0.2914		-3.8542		-0.2692		H		1		UNL1		0.1434
42		H		-0.2723		-1.6595		0.7553		H		1		UNL1		0.1622
43		H		-2.2937		4.0016		0.7629		H		1		UNL1		0.1731
44		H		-1.6346		3.3954		2.2899		H		1		UNL1		0.1515
45		H		-0.8930		4.7897		1.4726		H		1		UNL1		0.1856
46		H		1.8258		3.2191		-1.8698		H		1		UNL1		0.3538
@<TRIPOS>BOND
1		32		6		1
2		7		6		1
3		7		8		1
4		46		26		1
5		33		6		1
6		6		4		1
7		39		17		1
8		40		18		1
9		26		8		ar
10		26		24		ar
11		8		9		ar
12		17		18		ar
13		17		16		ar
14		18		19		ar
15		38		15		1
16		25		24		2
17		24		22		ar
18		15		16		ar
19		15		14		ar
20		16		21		ar
21		19		41		1
22		19		20		ar
23		9		10		ar
24		4		3		1
25		4		5		2
26		14		37		1
27		14		13		ar
28		20		21		ar
29		20		42		1
30		21		12		ar
31		3		2		1
32		22		10		ar
33		22		23		1
34		10		11		1
35		43		23		1
36		13		12		ar
37		13		36		1
38		12		11		1
39		29		1		1
40		27		1		1
41		23		45		1
42		23		44		1
43		11		35		1
44		11		34		1
45		1		2		1
46		1		28		1
47		2		30		1
48		2		31		1

