@<TRIPOS>MOLECULE
HYP-2005-CJCU-254-4
 51 53 0 0 0
SMALL
MULLIKEN_CHARGES
****
Gaussian 16 #p B3LYP/6-31G* opt
@<TRIPOS>ATOM
1		C		-1.2449		-3.9479		1.0055		C.3		1		UNL1		-0.4562
2		C		-1.2367		-2.5097		1.5658		C.3		1		UNL1		-0.1441
3		C		-1.9959		-2.4244		2.9054		C.3		1		UNL1		-0.4515
4		C		-1.7587		-1.4975		0.5489		C.ar		1		UNL1		-0.0006
5		C		-1.0399		-0.4285		0.0857		C.ar		1		UNL1		0.3098
6		C		0.3479		-0.1044		0.6024		C.3		1		UNL1		-0.4749
7		C		1.5149		-0.5975		-0.2484		C.ar		1		UNL1		0.1156
8		C		1.3220		-1.4184		-1.3410		C.ar		1		UNL1		-0.1976
9		C		2.4082		-1.8785		-2.1242		C.ar		1		UNL1		-0.1358
10		C		3.6929		-1.5126		-1.8079		C.ar		1		UNL1		-0.1864
11		C		3.9481		-0.6747		-0.6888		C.ar		1		UNL1		0.1364
12		C		5.2707		-0.2910		-0.3424		C.ar		1		UNL1		-0.1928
13		C		5.5158		0.5137		0.7470		C.ar		1		UNL1		-0.1316
14		C		4.4387		0.9690		1.5412		C.ar		1		UNL1		-0.1327
15		C		3.1426		0.6174		1.2303		C.ar		1		UNL1		-0.2010
16		C		2.8502		-0.2087		0.1097		C.ar		1		UNL1		0.0766
17		N		-1.5483		0.4310		-0.9065		N.ar		1		UNL1		-0.5655
18		C		-0.8261		1.5876		-1.4733		C.3		1		UNL1		0.0796
19		O		-1.3133		2.8264		-1.0348		O.3		1		UNL1		-0.4504
20		C		-0.9676		3.2160		0.2844		C.3		1		UNL1		-0.0450
21		C		-1.5854		4.5908		0.5345		C.3		1		UNL1		-0.0577
22		O		-1.2903		5.0583		1.8435		O.3		1		UNL1		-0.6103
23		C		-2.8094		0.2306		-1.4932		C.ar		1		UNL1		0.7906
24		O		-3.2367		0.9118		-2.4087		O.2		1		UNL1		-0.5064
25		N		-3.5262		-0.8096		-0.9429		N.ar		1		UNL1		-0.6999
26		C		-3.1262		-1.7039		0.0540		C.ar		1		UNL1		0.6033
27		O		-3.9098		-2.5687		0.4283		O.2		1		UNL1		-0.5120
28		H		-0.6632		-4.0114		0.0786		H		1		UNL1		0.1368
29		H		-0.7896		-4.6296		1.7336		H		1		UNL1		0.1390
30		H		-2.2629		-4.2864		0.8028		H		1		UNL1		0.1859
31		H		-0.1880		-2.2767		1.7694		H		1		UNL1		0.1306
32		H		-1.9291		-1.4180		3.3358		H		1		UNL1		0.1333
33		H		-3.0514		-2.6710		2.7681		H		1		UNL1		0.1850
34		H		-1.5668		-3.1294		3.6273		H		1		UNL1		0.1395
35		H		0.4419		-0.5131		1.6114		H		1		UNL1		0.1931
36		H		0.4313		0.9775		0.7383		H		1		UNL1		0.1744
37		H		0.3165		-1.7271		-1.6103		H		1		UNL1		0.1407
38		H		2.2132		-2.5223		-2.9772		H		1		UNL1		0.1388
39		H		4.5325		-1.8596		-2.4051		H		1		UNL1		0.1354
40		H		6.0924		-0.6499		-0.9576		H		1		UNL1		0.1359
41		H		6.5332		0.7979		1.0007		H		1		UNL1		0.1361
42		H		4.6351		1.5989		2.4046		H		1		UNL1		0.1343
43		H		2.3355		0.9737		1.8623		H		1		UNL1		0.1311
44		H		-1.0047		1.5721		-2.5464		H		1		UNL1		0.1965
45		H		0.2407		1.4690		-1.2731		H		1		UNL1		0.1589
46		H		-1.3518		2.5077		1.0327		H		1		UNL1		0.1463
47		H		0.1302		3.2713		0.3976		H		1		UNL1		0.1123
48		H		-2.6741		4.5158		0.4670		H		1		UNL1		0.1709
49		H		-1.2514		5.2912		-0.2445		H		1		UNL1		0.1410
50		H		-0.3618		5.3367		1.8578		H		1		UNL1		0.3913
51		H		-4.4527		-0.9542		-1.3287		H		1		UNL1		0.3536
@<TRIPOS>BOND
1		38		9		1
2		44		18		1
3		24		23		2
4		39		10		1
5		9		10		ar
6		9		8		ar
7		10		11		ar
8		37		8		1
9		23		25		ar
10		23		17		ar
11		18		45		1
12		18		19		1
13		18		17		1
14		8		7		ar
15		51		25		1
16		19		20		1
17		40		12		1
18		25		26		ar
19		17		5		ar
20		11		12		ar
21		11		16		ar
22		12		13		ar
23		7		16		ar
24		7		6		1
25		49		21		1
26		26		27		2
27		26		4		ar
28		28		1		1
29		5		4		ar
30		5		6		1
31		16		15		ar
32		20		47		1
33		20		21		1
34		20		46		1
35		48		21		1
36		21		22		1
37		4		2		1
38		6		36		1
39		6		35		1
40		13		41		1
41		13		14		ar
42		30		1		1
43		1		2		1
44		1		29		1
45		15		14		ar
46		15		43		1
47		14		42		1
48		2		31		1
49		2		3		1
50		22		50		1
51		33		3		1
52		3		32		1
53		3		34		1

