@<TRIPOS>MOLECULE
HYP2005-MC-1233-4-27
 52 54 0 0 0
SMALL
MULLIKEN_CHARGES
****
Gaussian 16 #p B3LYP/6-31G* opt
@<TRIPOS>ATOM
1		C		3.1865		-4.8570		0.1991		C.3		1		UNL1		-0.4606
2		C		1.6952		-4.5775		0.1025		C.3		1		UNL1		-0.0496
3		O		1.4367		-3.4295		-0.7483		O.3		1		UNL1		-0.4604
4		C		1.4952		-2.2222		-0.1640		C.2		1		UNL1		0.6663
5		O		1.7091		-2.0193		1.0094		O.2		1		UNL1		-0.4807
6		C		1.1879		-1.1414		-1.2036		C.3		1		UNL1		-0.2534
7		N		1.6443		0.1726		-0.7596		N.ar		1		UNL1		-0.5358
8		C		0.7996		1.2465		-0.4312		C.ar		1		UNL1		0.3369
9		C		-0.6647		1.0758		-0.7791		C.3		1		UNL1		-0.4674
10		C		-1.5121		0.2012		0.1403		C.ar		1		UNL1		0.1004
11		C		-1.0180		-0.2971		1.3283		C.ar		1		UNL1		-0.1967
12		C		-1.8176		-1.0919		2.1852		C.ar		1		UNL1		-0.1401
13		C		-3.1176		-1.3799		1.8513		C.ar		1		UNL1		-0.1874
14		C		-3.6774		-0.8842		0.6427		C.ar		1		UNL1		0.1358
15		C		-5.0212		-1.1682		0.2822		C.ar		1		UNL1		-0.1935
16		C		-5.5629		-0.6819		-0.8860		C.ar		1		UNL1		-0.1322
17		C		-4.7754		0.1160		-1.7468		C.ar		1		UNL1		-0.1328
18		C		-3.4667		0.4084		-1.4271		C.ar		1		UNL1		-0.1996
19		C		-2.8712		-0.0795		-0.2307		C.ar		1		UNL1		0.0783
20		C		1.2995		2.4050		0.0965		C.ar		1		UNL1		-0.0216
21		C		0.5171		3.6621		0.4809		C.3		1		UNL1		-0.1596
22		C		-0.6265		3.4497		1.4904		C.3		1		UNL1		-0.4515
23		C		0.0771		4.4968		-0.7402		C.3		1		UNL1		-0.4466
24		C		2.7533		2.5317		0.2916		C.ar		1		UNL1		0.5970
25		O		3.3312		3.5104		0.7487		O.2		1		UNL1		-0.5124
26		N		3.5013		1.4251		-0.1174		N.ar		1		UNL1		-0.7059
27		C		3.0343		0.2391		-0.6314		C.ar		1		UNL1		0.8038
28		O		3.7660		-0.6830		-0.9595		O.2		1		UNL1		-0.5248
29		H		3.7045		-4.0220		0.6785		H		1		UNL1		0.1868
30		H		3.6183		-5.0142		-0.7943		H		1		UNL1		0.1629
31		H		3.3555		-5.7600		0.7972		H		1		UNL1		0.1496
32		H		1.1594		-5.3964		-0.3835		H		1		UNL1		0.1556
33		H		1.2577		-4.3888		1.0856		H		1		UNL1		0.1717
34		H		1.6803		-1.4095		-2.1402		H		1		UNL1		0.2100
35		H		0.1120		-1.1340		-1.3667		H		1		UNL1		0.2041
36		H		-1.1109		2.0699		-0.8248		H		1		UNL1		0.1922
37		H		-0.7241		0.6963		-1.8082		H		1		UNL1		0.1723
38		H		0.0098		-0.1011		1.6129		H		1		UNL1		0.1625
39		H		-1.3868		-1.4721		3.1069		H		1		UNL1		0.1411
40		H		-3.7376		-1.9894		2.5043		H		1		UNL1		0.1323
41		H		-5.6191		-1.7804		0.9532		H		1		UNL1		0.1336
42		H		-6.5931		-0.9069		-1.1480		H		1		UNL1		0.1338
43		H		-5.2058		0.5027		-2.6665		H		1		UNL1		0.1330
44		H		-2.8876		1.0287		-2.1036		H		1		UNL1		0.1293
45		H		1.2654		4.2707		0.9973		H		1		UNL1		0.1835
46		H		-1.4915		2.9247		1.0736		H		1		UNL1		0.1468
47		H		-0.2816		2.8802		2.3600		H		1		UNL1		0.1533
48		H		-0.9799		4.4242		1.8479		H		1		UNL1		0.1448
49		H		0.9305		4.7103		-1.3925		H		1		UNL1		0.1556
50		H		-0.6908		4.0003		-1.3455		H		1		UNL1		0.1369
51		H		-0.3395		5.4550		-0.4079		H		1		UNL1		0.1480
52		H		4.5064		1.4916		-0.0045		H		1		UNL1		0.3539
@<TRIPOS>BOND
1		43		17		1
2		34		6		1
3		44		18		1
4		37		9		1
5		17		18		ar
6		17		16		ar
7		18		19		ar
8		49		23		1
9		35		6		1
10		50		23		1
11		6		7		1
12		6		4		1
13		42		16		1
14		28		27		2
15		16		15		ar
16		36		9		1
17		30		1		1
18		9		8		1
19		9		10		1
20		7		27		ar
21		7		8		ar
22		3		4		1
23		3		2		1
24		23		51		1
25		23		21		1
26		27		26		ar
27		8		20		ar
28		32		2		1
29		19		10		ar
30		19		14		ar
31		4		5		2
32		26		52		1
33		26		24		ar
34		20		24		ar
35		20		21		1
36		2		1		1
37		2		33		1
38		10		11		ar
39		1		29		1
40		1		31		1
41		15		14		ar
42		15		41		1
43		24		25		2
44		21		45		1
45		21		22		1
46		14		13		ar
47		46		22		1
48		11		38		1
49		11		12		ar
50		22		48		1
51		22		47		1
52		13		12		ar
53		13		40		1
54		12		39		1

