@<TRIPOS>MOLECULE
HYP2005-MC-1233-4-26
 55 58 0 0 0
SMALL
MULLIKEN_CHARGES
****
Gaussian 16 #p B3LYP/6-31G* opt
@<TRIPOS>ATOM
1		C		4.5368		1.3089		-2.3278		C.3		1		UNL1		-0.4521
2		C		4.1074		0.6439		-1.0045		C.3		1		UNL1		-0.1438
3		C		5.3092		0.4578		-0.0541		C.3		1		UNL1		-0.4555
4		C		2.9616		1.3952		-0.3335		C.ar		1		UNL1		-0.0033
5		C		1.6986		0.8897		-0.1824		C.ar		1		UNL1		0.3242
6		C		1.2731		-0.4462		-0.7552		C.3		1		UNL1		-0.4643
7		C		1.3017		-1.6342		0.2016		C.ar		1		UNL1		0.1068
8		C		1.8521		-1.5362		1.4639		C.ar		1		UNL1		-0.1973
9		C		1.8898		-2.6439		2.3453		C.ar		1		UNL1		-0.1355
10		C		1.3744		-3.8553		1.9562		C.ar		1		UNL1		-0.1871
11		C		0.8016		-4.0128		0.6651		C.ar		1		UNL1		0.1367
12		C		0.2687		-5.2595		0.2428		C.ar		1		UNL1		-0.1935
13		C		-0.2787		-5.4110		-1.0109		C.ar		1		UNL1		-0.1317
14		C		-0.3144		-4.3126		-1.9001		C.ar		1		UNL1		-0.1330
15		C		0.1921		-3.0881		-1.5203		C.ar		1		UNL1		-0.2010
16		C		0.7622		-2.8929		-0.2318		C.ar		1		UNL1		0.0754
17		N		0.7051		1.5915		0.5140		N.ar		1		UNL1		-0.5281
18		C		-0.6447		1.0792		0.7227		C.3		1		UNL1		-0.2840
19		C		-1.5806		1.4275		-0.4425		C.2		1		UNL1		0.4337
20		O		-1.1280		1.9049		-1.4701		O.2		1		UNL1		-0.4590
21		C		-3.0494		1.1743		-0.3119		C.ar		1		UNL1		0.0168
22		C		-3.8797		1.6136		-1.3609		C.ar		1		UNL1		-0.1666
23		C		-5.2550		1.4336		-1.3366		C.ar		1		UNL1		-0.1941
24		C		-5.8172		0.7914		-0.2342		C.ar		1		UNL1		0.4042
25		F		-7.1452		0.6065		-0.1924		F		1		UNL1		-0.2811
26		C		-5.0491		0.3311		0.8278		C.ar		1		UNL1		-0.2739
27		C		-3.6770		0.5345		0.7652		C.ar		1		UNL1		0.3365
28		F		-2.9429		0.0737		1.8003		F		1		UNL1		-0.2828
29		C		0.8934		2.8966		0.9783		C.ar		1		UNL1		0.7935
30		O		0.0125		3.5431		1.5260		O.2		1		UNL1		-0.5249
31		N		2.1647		3.3829		0.7797		N.ar		1		UNL1		-0.7009
32		C		3.2450		2.7495		0.1536		C.ar		1		UNL1		0.6047
33		O		4.3077		3.3523		0.0506		O.2		1		UNL1		-0.5154
34		H		5.3276		0.7195		-2.8073		H		1		UNL1		0.1375
35		H		3.6953		1.3788		-3.0272		H		1		UNL1		0.1371
36		H		4.9192		2.3165		-2.1474		H		1		UNL1		0.1830
37		H		3.7558		-0.3640		-1.2433		H		1		UNL1		0.1296
38		H		6.0779		-0.1508		-0.5450		H		1		UNL1		0.1375
39		H		5.7483		1.4200		0.2170		H		1		UNL1		0.1854
40		H		5.0078		-0.0604		0.8637		H		1		UNL1		0.1355
41		H		1.9063		-0.6664		-1.6187		H		1		UNL1		0.1933
42		H		0.2701		-0.3294		-1.1765		H		1		UNL1		0.1811
43		H		2.2721		-0.5907		1.7935		H		1		UNL1		0.1415
44		H		2.3309		-2.5241		3.3308		H		1		UNL1		0.1373
45		H		1.3988		-4.7108		2.6266		H		1		UNL1		0.1339
46		H		0.3039		-6.0989		0.9334		H		1		UNL1		0.1343
47		H		-0.6815		-6.3713		-1.3207		H		1		UNL1		0.1347
48		H		-0.7431		-4.4356		-2.8910		H		1		UNL1		0.1346
49		H		0.1575		-2.2634		-2.2246		H		1		UNL1		0.1369
50		H		-0.6215		0.0003		0.8879		H		1		UNL1		0.2029
51		H		-1.0260		1.5352		1.6366		H		1		UNL1		0.2236
52		H		-3.3992		2.1078		-2.1983		H		1		UNL1		0.1860
53		H		-5.8934		1.7775		-2.1427		H		1		UNL1		0.1635
54		H		-5.4988		-0.1704		1.6762		H		1		UNL1		0.1747
55		H		2.3282		4.3299		1.1024		H		1		UNL1		0.3528
@<TRIPOS>BOND
1		35		1		1
2		48		14		1
3		34		1		1
4		1		36		1
5		1		2		1
6		49		15		1
7		52		22		1
8		53		23		1
9		14		15		ar
10		14		13		ar
11		41		6		1
12		15		16		ar
13		20		19		2
14		22		23		ar
15		22		21		ar
16		23		24		ar
17		47		13		1
18		37		2		1
19		42		6		1
20		13		12		ar
21		2		4		1
22		2		3		1
23		6		5		1
24		6		7		1
25		38		3		1
26		19		21		1
27		19		18		1
28		4		5		ar
29		4		32		ar
30		21		27		ar
31		24		25		1
32		24		26		ar
33		16		7		ar
34		16		11		ar
35		5		17		ar
36		3		39		1
37		3		40		1
38		33		32		2
39		32		31		ar
40		7		8		ar
41		12		11		ar
42		12		46		1
43		17		18		1
44		17		29		ar
45		11		10		ar
46		18		50		1
47		18		51		1
48		27		26		ar
49		27		28		1
50		31		29		ar
51		31		55		1
52		26		54		1
53		29		30		2
54		8		43		1
55		8		9		ar
56		10		9		ar
57		10		45		1
58		9		44		1

