@<TRIPOS>MOLECULE
HYP2005-MC-1233-4-20
 55 58 0 0 0
SMALL
MULLIKEN_CHARGES
****
Gaussian 16 #p B3LYP/6-31G* opt
@<TRIPOS>ATOM
1		C		-2.3397		3.1713		-2.2529		C.3		1		UNL1		-0.4562
2		C		-2.4486		1.9440		-1.3233		C.3		1		UNL1		-0.1429
3		C		-3.8636		1.8138		-0.7245		C.3		1		UNL1		-0.4547
4		C		-1.3655		1.9560		-0.2510		C.ar		1		UNL1		0.0063
5		C		-0.4004		0.9941		-0.1354		C.ar		1		UNL1		0.3393
6		C		-0.3629		-0.2331		-1.0447		C.3		1		UNL1		-0.4606
7		C		-1.5465		-1.2010		-1.0302		C.ar		1		UNL1		0.1340
8		C		-2.1012		-1.5544		-2.2467		C.ar		1		UNL1		-0.2060
9		C		-3.1405		-2.5062		-2.3534		C.ar		1		UNL1		-0.1289
10		C		-3.6288		-3.1170		-1.2249		C.ar		1		UNL1		-0.1909
11		C		-3.0918		-2.8025		0.0512		C.ar		1		UNL1		0.1432
12		C		-3.5788		-3.4418		1.2229		C.ar		1		UNL1		-0.1945
13		C		-3.0545		-3.1554		2.4617		C.ar		1		UNL1		-0.1311
14		C		-2.0138		-2.2060		2.5785		C.ar		1		UNL1		-0.1422
15		C		-1.5216		-1.5649		1.4627		C.ar		1		UNL1		-0.1984
16		C		-2.0346		-1.8337		0.1625		C.ar		1		UNL1		0.0746
17		N		0.6185		1.0894		0.8348		N.ar		1		UNL1		-0.5497
18		C		1.7848		0.2116		0.8735		C.3		1		UNL1		-0.2998
19		C		2.7462		0.4453		-0.3019		C.2		1		UNL1		0.4176
20		O		2.4571		1.2366		-1.1843		O.2		1		UNL1		-0.4588
21		C		4.0219		-0.3301		-0.3265		C.ar		1		UNL1		0.0810
22		C		4.8748		-0.1575		-1.4291		C.ar		1		UNL1		-0.1535
23		C		6.0754		-0.8551		-1.5064		C.ar		1		UNL1		-0.1327
24		C		6.4398		-1.7345		-0.4820		C.ar		1		UNL1		-0.1159
25		C		5.6004		-1.9120		0.6194		C.ar		1		UNL1		-0.1336
26		C		4.3963		-1.2136		0.6987		C.ar		1		UNL1		-0.1808
27		C		0.6960		2.1644		1.7339		C.ar		1		UNL1		0.7913
28		O		1.5910		2.2862		2.5597		O.2		1		UNL1		-0.5251
29		N		-0.3317		3.0661		1.6237		N.ar		1		UNL1		-0.6968
30		C		-1.3673		3.0857		0.6811		C.ar		1		UNL1		0.6054
31		O		-2.1749		4.0072		0.7106		O.2		1		UNL1		-0.5144
32		H		-3.0775		3.0910		-3.0604		H		1		UNL1		0.1345
33		H		-2.5270		4.0975		-1.7053		H		1		UNL1		0.1830
34		H		-1.3449		3.2340		-2.7098		H		1		UNL1		0.1383
35		H		-2.2896		1.0625		-1.9463		H		1		UNL1		0.1300
36		H		-3.9520		0.9043		-0.1202		H		1		UNL1		0.1450
37		H		-4.1008		2.6754		-0.0960		H		1		UNL1		0.1788
38		H		-4.6061		1.7572		-1.5296		H		1		UNL1		0.1341
39		H		0.5387		-0.8138		-0.8486		H		1		UNL1		0.1700
40		H		-0.2381		0.1305		-2.0694		H		1		UNL1		0.1946
41		H		-1.7271		-1.0863		-3.1543		H		1		UNL1		0.1308
42		H		-3.5466		-2.7467		-3.3319		H		1		UNL1		0.1348
43		H		-4.4283		-3.8508		-1.2905		H		1		UNL1		0.1334
44		H		-4.3800		-4.1697		1.1187		H		1		UNL1		0.1332
45		H		-3.4370		-3.6529		3.3485		H		1		UNL1		0.1341
46		H		-1.6019		-1.9752		3.5572		H		1		UNL1		0.1342
47		H		-0.7376		-0.8289		1.5886		H		1		UNL1		0.1437
48		H		2.2988		0.4487		1.8079		H		1		UNL1		0.2372
49		H		1.4890		-0.8407		0.9258		H		1		UNL1		0.1870
50		H		4.5723		0.5315		-2.2108		H		1		UNL1		0.1684
51		H		6.7297		-0.7154		-2.3624		H		1		UNL1		0.1445
52		H		7.3782		-2.2792		-0.5416		H		1		UNL1		0.1441
53		H		5.8839		-2.5919		1.4177		H		1		UNL1		0.1434
54		H		3.7593		-1.3585		1.5657		H		1		UNL1		0.1449
55		H		-0.3011		3.8467		2.2697		H		1		UNL1		0.3529
@<TRIPOS>BOND
1		42		9		1
2		41		8		1
3		32		1		1
4		34		1		1
5		51		23		1
6		9		8		ar
7		9		10		ar
8		1		33		1
9		1		2		1
10		8		7		ar
11		50		22		1
12		40		6		1
13		35		2		1
14		38		3		1
15		23		22		ar
16		23		24		ar
17		22		21		ar
18		2		3		1
19		2		4		1
20		43		10		1
21		10		11		ar
22		20		19		2
23		6		7		1
24		6		39		1
25		6		5		1
26		7		16		ar
27		3		36		1
28		3		37		1
29		52		24		1
30		24		25		ar
31		21		19		1
32		21		26		ar
33		19		18		1
34		4		5		ar
35		4		30		ar
36		5		17		ar
37		11		16		ar
38		11		12		ar
39		16		15		ar
40		25		26		ar
41		25		53		1
42		30		31		2
43		30		29		ar
44		26		54		1
45		17		18		1
46		17		27		ar
47		18		49		1
48		18		48		1
49		44		12		1
50		12		13		ar
51		15		47		1
52		15		14		ar
53		29		27		ar
54		29		55		1
55		27		28		2
56		13		14		ar
57		13		45		1
58		14		46		1

