@<TRIPOS>MOLECULE
HYP2005-MC-1233-4-15
 52 55 0 0 0
SMALL
MULLIKEN_CHARGES
****
Gaussian 16 #p B3LYP/6-31G* opt
@<TRIPOS>ATOM
1		C		5.6136		0.1228		0.9140		C.3		1		UNL1		-0.4452
2		C		4.6325		0.2136		-0.2684		C.3		1		UNL1		-0.3356
3		C		3.4562		1.1278		-0.0063		C.ar		1		UNL1		-0.0141
4		C		2.2320		0.7156		0.4318		C.ar		1		UNL1		0.3380
5		C		1.9656		-0.7306		0.7956		C.3		1		UNL1		-0.4628
6		C		1.2451		-1.5875		-0.2407		C.ar		1		UNL1		0.1025
7		C		1.0469		-1.1421		-1.5316		C.ar		1		UNL1		-0.1983
8		C		0.3990		-1.9478		-2.4994		C.ar		1		UNL1		-0.1381
9		C		-0.0456		-3.2040		-2.1703		C.ar		1		UNL1		-0.1870
10		C		0.1424		-3.7137		-0.8569		C.ar		1		UNL1		0.1352
11		C		-0.3055		-5.0131		-0.4998		C.ar		1		UNL1		-0.1932
12		C		-0.1135		-5.5084		0.7699		C.ar		1		UNL1		-0.1322
13		C		0.5422		-4.7177		1.7407		C.ar		1		UNL1		-0.1326
14		C		0.9866		-3.4508		1.4272		C.ar		1		UNL1		-0.2025
15		C		0.8006		-2.9026		0.1277		C.ar		1		UNL1		0.0778
16		N		1.1925		1.6325		0.6453		N.ar		1		UNL1		-0.5399
17		C		-0.1982		1.2604		0.8736		C.3		1		UNL1		-0.2643
18		C		-1.0564		1.4560		-0.3919		C.2		1		UNL1		0.4428
19		O		-0.5348		1.7111		-1.4621		O.2		1		UNL1		-0.4621
20		C		-2.5360		1.2986		-0.2643		C.ar		1		UNL1		0.0875
21		C		-3.3186		1.4874		-1.4138		C.ar		1		UNL1		-0.1510
22		C		-4.7020		1.3484		-1.3636		C.ar		1		UNL1		-0.2040
23		C		-5.3079		1.0150		-0.1578		C.ar		1		UNL1		0.3325
24		F		-6.6374		0.8729		-0.0788		F		1		UNL1		-0.2718
25		C		-4.5396		0.8232		0.9915		C.ar		1		UNL1		0.3262
26		F		-5.1558		0.5014		2.1403		F		1		UNL1		-0.2789
27		C		-3.1624		0.9634		0.9481		C.ar		1		UNL1		-0.2636
28		C		1.3673		3.0131		0.4892		C.ar		1		UNL1		0.8033
29		O		0.4694		3.8134		0.7015		O.2		1		UNL1		-0.5258
30		N		2.6324		3.3881		0.0964		N.ar		1		UNL1		-0.7065
31		C		3.7132		2.5552		-0.2125		C.ar		1		UNL1		0.6088
32		O		4.7713		3.0376		-0.5956		O.2		1		UNL1		-0.5141
33		H		5.9992		1.1158		1.1640		H		1		UNL1		0.1720
34		H		5.1327		-0.2914		1.8086		H		1		UNL1		0.1351
35		H		6.4654		-0.5185		0.6606		H		1		UNL1		0.1479
36		H		5.1697		0.6211		-1.1309		H		1		UNL1		0.1767
37		H		4.2888		-0.7847		-0.5569		H		1		UNL1		0.1452
38		H		2.9282		-1.1944		1.0305		H		1		UNL1		0.1946
39		H		1.4136		-0.7478		1.7435		H		1		UNL1		0.1692
40		H		1.3746		-0.1477		-1.8154		H		1		UNL1		0.1605
41		H		0.2560		-1.5571		-3.5027		H		1		UNL1		0.1403
42		H		-0.5453		-3.8279		-2.9074		H		1		UNL1		0.1332
43		H		-0.8047		-5.6147		-1.2558		H		1		UNL1		0.1345
44		H		-0.4608		-6.5050		1.0281		H		1		UNL1		0.1348
45		H		0.6990		-5.1127		2.7407		H		1		UNL1		0.1336
46		H		1.4956		-2.8703		2.1899		H		1		UNL1		0.1294
47		H		-0.2642		0.2168		1.1814		H		1		UNL1		0.1940
48		H		-0.5951		1.8835		1.6785		H		1		UNL1		0.2080
49		H		-2.8190		1.7462		-2.3405		H		1		UNL1		0.1781
50		H		-5.3240		1.4934		-2.2407		H		1		UNL1		0.1670
51		H		-2.6095		0.8082		1.8676		H		1		UNL1		0.1610
52		H		2.7743		4.3839		-0.0306		H		1		UNL1		0.3539
@<TRIPOS>BOND
1		41		8		1
2		42		9		1
3		8		9		ar
4		8		7		ar
5		49		21		1
6		50		22		1
7		9		10		ar
8		40		7		1
9		7		6		ar
10		19		18		2
11		21		22		ar
12		21		20		ar
13		22		23		ar
14		43		11		1
15		36		2		1
16		10		11		ar
17		10		15		ar
18		32		31		2
19		37		2		1
20		11		12		ar
21		18		20		1
22		18		17		1
23		2		3		1
24		2		1		1
25		20		27		ar
26		6		15		ar
27		6		5		1
28		31		3		ar
29		31		30		ar
30		23		24		1
31		23		25		ar
32		52		30		1
33		3		4		ar
34		30		28		ar
35		15		14		ar
36		4		16		ar
37		4		5		1
38		28		16		ar
39		28		29		2
40		16		17		1
41		35		1		1
42		12		44		1
43		12		13		ar
44		5		38		1
45		5		39		1
46		17		47		1
47		17		48		1
48		1		33		1
49		1		34		1
50		27		25		ar
51		27		51		1
52		25		26		1
53		14		13		ar
54		14		46		1
55		13		45		1

