@<TRIPOS>MOLECULE
HYP2005-MC-1233-4-36
 54 57 0 0 0
SMALL
MULLIKEN_CHARGES
****
Gaussian 16 #p B3LYP/6-31G* opt
@<TRIPOS>ATOM
1		C		7.9589		-1.7502		1.1054		C.3		1		UNL1		-0.2221
2		O		7.1355		-1.8570		-0.0499		O.3		1		UNL1		-0.4967
3		C		5.9302		-1.2365		-0.0515		C.ar		1		UNL1		0.3913
4		C		5.4182		-0.4878		1.0180		C.ar		1		UNL1		-0.1998
5		C		4.1628		0.1061		0.9013		C.ar		1		UNL1		-0.1920
6		C		3.3986		-0.0299		-0.2663		C.ar		1		UNL1		0.0845
7		C		2.0576		0.5802		-0.4378		C.2		1		UNL1		0.4171
8		O		1.4276		0.4763		-1.4800		O.2		1		UNL1		-0.4638
9		C		1.4616		1.3572		0.7489		C.3		1		UNL1		-0.2836
10		N		0.1841		1.9870		0.4394		N.ar		1		UNL1		-0.5626
11		C		-1.0488		1.3243		0.5119		C.ar		1		UNL1		0.3530
12		C		-1.0907		-0.1500		0.8784		C.3		1		UNL1		-0.4223
13		C		-1.9039		-1.0261		-0.0749		C.ar		1		UNL1		0.1157
14		C		-1.5243		-1.0678		-1.4038		C.ar		1		UNL1		-0.2183
15		C		-2.1789		-1.9052		-2.3351		C.ar		1		UNL1		-0.1364
16		C		-3.2123		-2.7149		-1.9290		C.ar		1		UNL1		-0.1938
17		C		-3.6399		-2.7103		-0.5758		C.ar		1		UNL1		0.1376
18		C		-4.7095		-3.5432		-0.1479		C.ar		1		UNL1		-0.1970
19		C		-5.1402		-3.5359		1.1576		C.ar		1		UNL1		-0.1328
20		C		-4.5159		-2.6801		2.0950		C.ar		1		UNL1		-0.1395
21		C		-3.4748		-1.8633		1.7143		C.ar		1		UNL1		-0.1861
22		C		-2.9888		-1.8494		0.3757		C.ar		1		UNL1		0.0701
23		C		-2.2132		2.0132		0.3282		C.ar		1		UNL1		0.2211
24		O		-3.3964		1.3866		0.5910		O.3		1		UNL1		-0.5220
25		C		-4.3774		1.3799		-0.4619		C.3		1		UNL1		-0.2295
26		C		-2.2114		3.4258		-0.0412		C.ar		1		UNL1		0.6135
27		O		-3.1925		4.1375		-0.2115		O.2		1		UNL1		-0.5107
28		N		-0.9195		3.9405		-0.2132		N.ar		1		UNL1		-0.7079
29		C		0.2887		3.3210		0.0292		C.ar		1		UNL1		0.7876
30		O		1.3589		3.9022		-0.0846		O.2		1		UNL1		-0.5254
31		C		3.9310		-0.7851		-1.3311		C.ar		1		UNL1		-0.1582
32		C		5.1739		-1.3803		-1.2298		C.ar		1		UNL1		-0.1732
33		H		8.8626		-2.3176		0.8784		H		1		UNL1		0.1797
34		H		7.4692		-2.1825		1.9870		H		1		UNL1		0.1591
35		H		8.2260		-0.7062		1.3111		H		1		UNL1		0.1609
36		H		5.9850		-0.3607		1.9326		H		1		UNL1		0.1417
37		H		3.7924		0.6866		1.7407		H		1		UNL1		0.1424
38		H		1.3632		0.7087		1.6234		H		1		UNL1		0.1849
39		H		2.1448		2.1676		1.0125		H		1		UNL1		0.2252
40		H		-1.4729		-0.2278		1.8991		H		1		UNL1		0.1814
41		H		-0.0781		-0.5566		0.9054		H		1		UNL1		0.1673
42		H		-0.6962		-0.4492		-1.7378		H		1		UNL1		0.1813
43		H		-1.8503		-1.9085		-3.3708		H		1		UNL1		0.1327
44		H		-3.7169		-3.3703		-2.6350		H		1		UNL1		0.1279
45		H		-5.1852		-4.1898		-0.8819		H		1		UNL1		0.1290
46		H		-5.9594		-4.1777		1.4702		H		1		UNL1		0.1291
47		H		-4.8648		-2.6629		3.1241		H		1		UNL1		0.1288
48		H		-3.0346		-1.2064		2.4557		H		1		UNL1		0.1324
49		H		-4.7136		2.3951		-0.6793		H		1		UNL1		0.1874
50		H		-3.9669		0.9106		-1.3632		H		1		UNL1		0.1520
51		H		-5.2031		0.7752		-0.0832		H		1		UNL1		0.1632
52		H		-0.8586		4.9159		-0.4826		H		1		UNL1		0.3550
53		H		3.3396		-0.8869		-2.2349		H		1		UNL1		0.1690
54		H		5.5922		-1.9634		-2.0439		H		1		UNL1		0.1515
@<TRIPOS>BOND
1		43		15		1
2		44		16		1
3		15		16		ar
4		15		14		ar
5		53		31		1
6		54		32		1
7		16		17		ar
8		42		14		1
9		8		7		2
10		14		13		ar
11		50		25		1
12		31		32		ar
13		31		6		ar
14		32		3		ar
15		45		18		1
16		49		25		1
17		17		18		ar
18		17		22		ar
19		52		28		1
20		25		51		1
21		25		24		1
22		7		6		1
23		7		9		1
24		6		5		ar
25		28		26		ar
26		28		29		ar
27		27		26		2
28		18		19		ar
29		30		29		2
30		13		22		ar
31		13		12		1
32		3		2		1
33		3		4		ar
34		2		1		1
35		26		23		ar
36		29		10		ar
37		23		11		ar
38		23		24		1
39		22		21		ar
40		10		11		ar
41		10		9		1
42		11		12		1
43		9		39		1
44		9		38		1
45		33		1		1
46		12		41		1
47		12		40		1
48		5		4		ar
49		5		37		1
50		4		36		1
51		1		35		1
52		1		34		1
53		19		46		1
54		19		20		ar
55		21		20		ar
56		21		48		1
57		20		47		1

