@<TRIPOS>MOLECULE
HYP2005-MC-1233-4-6
 49 52 0 0 0
SMALL
MULLIKEN_CHARGES
****
Gaussian 16 #p B3LYP/6-31G* opt
@<TRIPOS>ATOM
1		C		3.3445		2.8813		-1.5452		C.3		1		UNL1		-0.5431
2		C		2.0258		2.8217		-0.8130		C.ar		1		UNL1		0.0049
3		C		1.3737		1.6603		-0.5182		C.ar		1		UNL1		0.3309
4		C		1.9191		0.3170		-0.9427		C.3		1		UNL1		-0.4664
5		C		2.6533		-0.4762		0.1359		C.ar		1		UNL1		0.0996
6		C		3.0321		0.1047		1.3302		C.ar		1		UNL1		-0.1990
7		C		3.7318		-0.6244		2.3220		C.ar		1		UNL1		-0.1356
8		C		4.0543		-1.9423		2.1123		C.ar		1		UNL1		-0.1881
9		C		3.6950		-2.5873		0.8982		C.ar		1		UNL1		0.1373
10		C		4.0264		-3.9478		0.6614		C.ar		1		UNL1		-0.1939
11		C		3.6847		-4.5677		-0.5188		C.ar		1		UNL1		-0.1312
12		C		2.9923		-3.8458		-1.5178		C.ar		1		UNL1		-0.1335
13		C		2.6526		-2.5249		-1.3188		C.ar		1		UNL1		-0.1994
14		C		2.9862		-1.8517		-0.1106		C.ar		1		UNL1		0.0726
15		N		0.1623		1.6644		0.1877		N.ar		1		UNL1		-0.5311
16		C		-0.5651		0.4472		0.5611		C.3		1		UNL1		-0.2665
17		C		-1.5909		0.0125		-0.5048		C.2		1		UNL1		0.4092
18		O		-1.2192		-0.1304		-1.6609		O.2		1		UNL1		-0.4541
19		C		-2.9855		-0.3102		-0.0958		C.ar		1		UNL1		0.0613
20		C		-3.5970		0.2487		1.0377		C.ar		1		UNL1		-0.1707
21		C		-4.9155		-0.0778		1.3556		C.ar		1		UNL1		-0.2125
22		C		-5.6119		-0.9675		0.5495		C.ar		1		UNL1		0.3371
23		F		-6.8738		-1.3076		0.8420		F		1		UNL1		-0.2717
24		C		-5.0115		-1.5194		-0.5870		C.ar		1		UNL1		0.3228
25		F		-5.7219		-2.3714		-1.3432		F		1		UNL1		-0.2783
26		C		-3.7127		-1.1895		-0.9195		C.ar		1		UNL1		-0.2297
27		C		-0.4727		2.8475		0.5721		C.ar		1		UNL1		0.7889
28		O		-1.5473		2.8626		1.1611		O.2		1		UNL1		-0.5280
29		N		0.2115		3.9945		0.2455		N.ar		1		UNL1		-0.7019
30		C		1.4389		4.1050		-0.4253		C.ar		1		UNL1		0.5967
31		O		1.9188		5.2103		-0.6359		O.2		1		UNL1		-0.5097
32		H		3.2381		2.6204		-2.6061		H		1		UNL1		0.1659
33		H		3.7252		3.9033		-1.4953		H		1		UNL1		0.1981
34		H		4.0908		2.2103		-1.1075		H		1		UNL1		0.1634
35		H		2.5994		0.4845		-1.7840		H		1		UNL1		0.1885
36		H		1.0882		-0.2651		-1.3527		H		1		UNL1		0.2091
37		H		2.7954		1.1480		1.5178		H		1		UNL1		0.1367
38		H		4.0106		-0.1298		3.2482		H		1		UNL1		0.1364
39		H		4.5910		-2.5100		2.8685		H		1		UNL1		0.1340
40		H		4.5615		-4.4932		1.4353		H		1		UNL1		0.1341
41		H		3.9460		-5.6089		-0.6865		H		1		UNL1		0.1351
42		H		2.7260		-4.3365		-2.4499		H		1		UNL1		0.1358
43		H		2.1245		-1.9935		-2.1034		H		1		UNL1		0.1422
44		H		0.1466		-0.3723		0.6806		H		1		UNL1		0.2060
45		H		-1.0255		0.6254		1.5294		H		1		UNL1		0.1955
46		H		-3.0730		0.9873		1.6330		H		1		UNL1		0.1982
47		H		-5.4163		0.3534		2.2159		H		1		UNL1		0.1673
48		H		-3.2553		-1.6082		-1.8089		H		1		UNL1		0.1820
49		H		-0.2341		4.8633		0.5180		H		1		UNL1		0.3551
@<TRIPOS>BOND
1		32		1		1
2		42		12		1
3		43		13		1
4		48		26		1
5		35		4		1
6		18		17		2
7		1		33		1
8		1		34		1
9		1		2		1
10		12		13		ar
11		12		11		ar
12		36		4		1
13		25		24		1
14		13		14		ar
15		4		3		1
16		4		5		1
17		26		24		ar
18		26		19		ar
19		2		3		ar
20		2		30		ar
21		41		11		1
22		31		30		2
23		24		22		ar
24		11		10		ar
25		3		15		ar
26		17		19		1
27		17		16		1
28		30		29		ar
29		14		5		ar
30		14		9		ar
31		19		20		ar
32		5		6		ar
33		15		16		1
34		15		27		ar
35		29		49		1
36		29		27		ar
37		22		23		1
38		22		21		ar
39		16		44		1
40		16		45		1
41		27		28		2
42		10		9		ar
43		10		40		1
44		9		8		ar
45		20		21		ar
46		20		46		1
47		6		37		1
48		6		7		ar
49		21		47		1
50		8		7		ar
51		8		39		1
52		7		38		1

