@<TRIPOS>MOLECULE
HYP2005-MC-1233-4-9
 43 45 0 0 0
SMALL
MULLIKEN_CHARGES
****
Gaussian 16 #p B3LYP/6-31G* opt
@<TRIPOS>ATOM
1		C		-2.2950		3.7155		-1.2972		C.3		1		UNL1		-0.2238
2		O		-1.9936		2.4720		-0.6356		O.3		1		UNL1		-0.4453
3		C		-1.3625		2.5912		0.5468		C.2		1		UNL1		0.6417
4		O		-1.0108		3.6394		1.0364		O.2		1		UNL1		-0.4655
5		C		-1.1020		1.2453		1.2194		C.3		1		UNL1		-0.2802
6		N		-1.7307		0.0857		0.5936		N.ar		1		UNL1		-0.5324
7		C		-1.1173		-0.6691		-0.4125		C.ar		1		UNL1		0.3318
8		C		0.2597		-0.2325		-0.8566		C.3		1		UNL1		-0.4499
9		C		1.4233		-0.6762		0.0273		C.ar		1		UNL1		0.1038
10		C		1.2472		-1.5850		1.0516		C.ar		1		UNL1		-0.1975
11		C		2.3291		-2.0103		1.8600		C.ar		1		UNL1		-0.1354
12		C		3.5924		-1.5219		1.6366		C.ar		1		UNL1		-0.1861
13		C		3.8304		-0.5906		0.5900		C.ar		1		UNL1		0.1364
14		C		5.1319		-0.0806		0.3400		C.ar		1		UNL1		-0.1925
15		C		5.3612		0.8143		-0.6802		C.ar		1		UNL1		-0.1310
16		C		4.2892		1.2373		-1.4987		C.ar		1		UNL1		-0.1316
17		C		3.0133		0.7638		-1.2807		C.ar		1		UNL1		-0.1974
18		C		2.7371		-0.1582		-0.2335		C.ar		1		UNL1		0.0782
19		C		-1.7354		-1.7475		-0.9731		C.ar		1		UNL1		0.0031
20		C		-1.1092		-2.6188		-2.0345		C.3		1		UNL1		-0.5436
21		C		-3.0935		-2.1018		-0.5558		C.ar		1		UNL1		0.5973
22		O		-3.7549		-3.0376		-0.9852		O.2		1		UNL1		-0.5117
23		N		-3.6334		-1.2526		0.4191		N.ar		1		UNL1		-0.7026
24		C		-3.0450		-0.1562		1.0112		C.ar		1		UNL1		0.7866
25		O		-3.6147		0.5382		1.8387		O.2		1		UNL1		-0.5186
26		H		-1.3762		4.2688		-1.5071		H		1		UNL1		0.1736
27		H		-2.8006		3.4378		-2.2219		H		1		UNL1		0.1709
28		H		-2.9463		4.3282		-0.6694		H		1		UNL1		0.1828
29		H		-0.0238		1.0949		1.2932		H		1		UNL1		0.2097
30		H		-1.4932		1.3278		2.2341		H		1		UNL1		0.2343
31		H		0.2637		0.8584		-0.9586		H		1		UNL1		0.1741
32		H		0.4184		-0.6140		-1.8704		H		1		UNL1		0.1901
33		H		0.2588		-1.9910		1.2453		H		1		UNL1		0.1405
34		H		2.1479		-2.7254		2.6574		H		1		UNL1		0.1386
35		H		4.4286		-1.8414		2.2537		H		1		UNL1		0.1355
36		H		5.9499		-0.4147		0.9738		H		1		UNL1		0.1356
37		H		6.3624		1.1957		-0.8599		H		1		UNL1		0.1361
38		H		4.4734		1.9411		-2.3058		H		1		UNL1		0.1349
39		H		2.2100		1.1009		-1.9276		H		1		UNL1		0.1313
40		H		-1.0491		-2.1093		-3.0054		H		1		UNL1		0.1617
41		H		-1.7322		-3.5052		-2.1691		H		1		UNL1		0.1990
42		H		-0.0990		-2.9417		-1.7618		H		1		UNL1		0.1630
43		H		-4.5822		-1.4512		0.7157		H		1		UNL1		0.3543
@<TRIPOS>BOND
1		40		20		1
2		38		16		1
3		27		1		1
4		41		20		1
5		20		42		1
6		20		19		1
7		39		17		1
8		32		8		1
9		26		1		1
10		16		17		ar
11		16		15		ar
12		1		28		1
13		1		2		1
14		17		18		ar
15		22		21		2
16		19		21		ar
17		19		7		ar
18		31		8		1
19		37		15		1
20		8		7		1
21		8		9		1
22		15		14		ar
23		2		3		1
24		21		23		ar
25		7		6		ar
26		18		9		ar
27		18		13		ar
28		9		10		ar
29		14		13		ar
30		14		36		1
31		23		43		1
32		23		24		ar
33		3		4		2
34		3		5		1
35		13		12		ar
36		6		24		ar
37		6		5		1
38		24		25		2
39		10		33		1
40		10		11		ar
41		5		29		1
42		5		30		1
43		12		11		ar
44		12		35		1
45		11		34		1

