@<TRIPOS>MOLECULE
HYP2005-MC-1233-4-18
 52 54 0 0 0
SMALL
MULLIKEN_CHARGES
****
Gaussian 16 #p B3LYP/6-31G* opt
@<TRIPOS>ATOM
1		C		-1.1450		4.4043		-0.8497		C.3		1		UNL1		-0.4475
2		C		-0.1454		3.5353		-1.6341		C.3		1		UNL1		-0.3309
3		C		0.7665		2.7185		-0.7450		C.ar		1		UNL1		-0.0122
4		C		0.5677		1.4199		-0.3720		C.ar		1		UNL1		0.3374
5		C		-0.6092		0.6014		-0.8523		C.3		1		UNL1		-0.4565
6		C		-1.7545		0.4117		0.1396		C.ar		1		UNL1		0.0992
7		C		-1.8125		1.1140		1.3273		C.ar		1		UNL1		-0.1971
8		C		-2.8852		0.9482		2.2367		C.ar		1		UNL1		-0.1363
9		C		-3.9049		0.0745		1.9515		C.ar		1		UNL1		-0.1876
10		C		-3.8985		-0.6684		0.7402		C.ar		1		UNL1		0.1371
11		C		-4.9481		-1.5717		0.4251		C.ar		1		UNL1		-0.1934
12		C		-4.9441		-2.2837		-0.7527		C.ar		1		UNL1		-0.1315
13		C		-3.8817		-2.1187		-1.6705		C.ar		1		UNL1		-0.1333
14		C		-2.8458		-1.2525		-1.3939		C.ar		1		UNL1		-0.2004
15		C		-2.8137		-0.5025		-0.1853		C.ar		1		UNL1		0.0755
16		N		1.4644		0.7661		0.4869		N.ar		1		UNL1		-0.5315
17		C		1.3161		-0.6294		0.8850		C.3		1		UNL1		-0.2806
18		C		1.9327		-1.5950		-0.1256		C.2		1		UNL1		0.6517
19		O		2.2051		-1.3099		-1.2720		O.2		1		UNL1		-0.4786
20		O		2.0824		-2.8033		0.4357		O.3		1		UNL1		-0.4647
21		C		2.6253		-3.8758		-0.4013		C.3		1		UNL1		0.1233
22		C		2.0746		-5.1715		0.1761		C.3		1		UNL1		-0.4531
23		C		4.1474		-3.7954		-0.3916		C.3		1		UNL1		-0.4581
24		C		2.6509		1.3614		0.9306		C.ar		1		UNL1		0.7900
25		O		3.4771		0.7706		1.6099		O.2		1		UNL1		-0.5224
26		N		2.7975		2.6776		0.5538		N.ar		1		UNL1		-0.7023
27		C		1.9452		3.4382		-0.2541		C.ar		1		UNL1		0.6052
28		O		2.2195		4.6052		-0.5031		O.2		1		UNL1		-0.5143
29		H		-1.7482		5.0097		-1.5361		H		1		UNL1		0.1450
30		H		-1.8255		3.7891		-0.2508		H		1		UNL1		0.1455
31		H		-0.6118		5.0854		-0.1790		H		1		UNL1		0.1676
32		H		0.4918		4.1940		-2.2326		H		1		UNL1		0.1746
33		H		-0.6876		2.8958		-2.3376		H		1		UNL1		0.1394
34		H		-1.0049		1.0723		-1.7561		H		1		UNL1		0.1892
35		H		-0.2316		-0.3719		-1.1830		H		1		UNL1		0.1858
36		H		-1.0214		1.8153		1.5751		H		1		UNL1		0.1421
37		H		-2.8914		1.5193		3.1608		H		1		UNL1		0.1377
38		H		-4.7319		-0.0597		2.6444		H		1		UNL1		0.1342
39		H		-5.7622		-1.6886		1.1366		H		1		UNL1		0.1345
40		H		-5.7548		-2.9701		-0.9809		H		1		UNL1		0.1349
41		H		-3.8829		-2.6784		-2.6019		H		1		UNL1		0.1346
42		H		-2.0461		-1.1407		-2.1185		H		1		UNL1		0.1380
43		H		0.2609		-0.8729		1.0240		H		1		UNL1		0.2069
44		H		1.8179		-0.7590		1.8435		H		1		UNL1		0.2276
45		H		2.2510		-3.7121		-1.4160		H		1		UNL1		0.1620
46		H		2.4149		-5.3129		1.2076		H		1		UNL1		0.1602
47		H		0.9801		-5.1688		0.1702		H		1		UNL1		0.1585
48		H		2.4210		-6.0224		-0.4204		H		1		UNL1		0.1530
49		H		4.5322		-3.8939		0.6293		H		1		UNL1		0.1586
50		H		4.4867		-2.8428		-0.8071		H		1		UNL1		0.1796
51		H		4.5681		-4.6043		-0.9995		H		1		UNL1		0.1501
52		H		3.6428		3.1342		0.8772		H		1		UNL1		0.3532
@<TRIPOS>BOND
1		41		13		1
2		33		2		1
3		32		2		1
4		42		14		1
5		34		5		1
6		13		14		ar
7		13		12		ar
8		2		1		1
9		2		3		1
10		29		1		1
11		45		21		1
12		14		15		ar
13		19		18		2
14		35		5		1
15		51		23		1
16		40		12		1
17		5		4		1
18		5		6		1
19		1		30		1
20		1		31		1
21		50		23		1
22		12		11		ar
23		3		4		ar
24		3		27		ar
25		28		27		2
26		48		22		1
27		21		23		1
28		21		22		1
29		21		20		1
30		23		49		1
31		4		16		ar
32		27		26		ar
33		15		6		ar
34		15		10		ar
35		18		20		1
36		18		17		1
37		6		7		ar
38		47		22		1
39		22		46		1
40		11		10		ar
41		11		39		1
42		16		17		1
43		16		24		ar
44		26		52		1
45		26		24		ar
46		10		9		ar
47		17		43		1
48		17		44		1
49		24		25		2
50		7		36		1
51		7		8		ar
52		9		8		ar
53		9		38		1
54		8		37		1

