@<TRIPOS>MOLECULE
HYP2005-MC-1233-4-29
 49 51 0 0 0
SMALL
MULLIKEN_CHARGES
****
Gaussian 16 #p B3LYP/6-31G* opt
@<TRIPOS>ATOM
1		C		1.7645		3.9299		-1.8357		C.3		1		UNL1		-0.2238
2		O		1.5787		2.8157		-0.9418		O.3		1		UNL1		-0.4450
3		C		0.8851		3.0902		0.1782		C.2		1		UNL1		0.6426
4		O		0.3928		4.1640		0.4368		O.2		1		UNL1		-0.4656
5		C		0.7534		1.8851		1.1062		C.3		1		UNL1		-0.2813
6		N		1.5369		0.7066		0.7424		N.ar		1		UNL1		-0.5312
7		C		1.0510		-0.3211		-0.0795		C.ar		1		UNL1		0.3172
8		C		-0.3394		-0.1060		-0.6409		C.3		1		UNL1		-0.4632
9		C		-1.5037		-0.4999		0.2634		C.ar		1		UNL1		0.1083
10		C		-1.3017		-1.1563		1.4610		C.ar		1		UNL1		-0.1977
11		C		-2.3843		-1.5324		2.2926		C.ar		1		UNL1		-0.1358
12		C		-3.6743		-1.2496		1.9180		C.ar		1		UNL1		-0.1858
13		C		-3.9385		-0.5809		0.6922		C.ar		1		UNL1		0.1364
14		C		-5.2666		-0.2850		0.2860		C.ar		1		UNL1		-0.1925
15		C		-5.5197		0.3571		-0.9047		C.ar		1		UNL1		-0.1310
16		C		-4.4458		0.7311		-1.7442		C.ar		1		UNL1		-0.1315
17		C		-3.1447		0.4606		-1.3782		C.ar		1		UNL1		-0.1976
18		C		-2.8443		-0.1982		-0.1541		C.ar		1		UNL1		0.0785
19		C		1.8023		-1.4298		-0.3609		C.ar		1		UNL1		-0.0012
20		C		1.2994		-2.6157		-1.1787		C.3		1		UNL1		-0.1444
21		C		2.0437		-2.7474		-2.5228		C.3		1		UNL1		-0.4517
22		C		1.3536		-3.9328		-0.3759		C.3		1		UNL1		-0.4558
23		C		3.1838		-1.4930		0.1294		C.ar		1		UNL1		0.6033
24		O		3.9887		-2.3937		-0.0794		O.2		1		UNL1		-0.5134
25		N		3.5836		-0.3897		0.8932		N.ar		1		UNL1		-0.7013
26		C		2.8493		0.7257		1.2251		C.ar		1		UNL1		0.7885
27		O		3.3001		1.6464		1.8892		O.2		1		UNL1		-0.5192
28		H		2.3103		4.7307		-1.3312		H		1		UNL1		0.1828
29		H		2.3415		3.5377		-2.6730		H		1		UNL1		0.1709
30		H		0.7986		4.3129		-2.1744		H		1		UNL1		0.1735
31		H		-0.3022		1.6255		1.1969		H		1		UNL1		0.2100
32		H		1.0948		2.2172		2.0875		H		1		UNL1		0.2346
33		H		-0.4165		-0.6542		-1.5836		H		1		UNL1		0.1924
34		H		-0.4323		0.9467		-0.9280		H		1		UNL1		0.1753
35		H		-0.2913		-1.3979		1.7770		H		1		UNL1		0.1407
36		H		-2.1824		-2.0461		3.2282		H		1		UNL1		0.1382
37		H		-4.5114		-1.5339		2.5507		H		1		UNL1		0.1354
38		H		-6.0857		-0.5788		0.9382		H		1		UNL1		0.1355
39		H		-6.5411		0.5768		-1.2026		H		1		UNL1		0.1360
40		H		-4.6482		1.2355		-2.6850		H		1		UNL1		0.1349
41		H		-2.3394		0.7550		-2.0434		H		1		UNL1		0.1315
42		H		0.2426		-2.4459		-1.4042		H		1		UNL1		0.1311
43		H		3.1068		-2.9396		-2.3587		H		1		UNL1		0.1836
44		H		1.6278		-3.5786		-3.1046		H		1		UNL1		0.1396
45		H		1.9458		-1.8339		-3.1215		H		1		UNL1		0.1327
46		H		0.7805		-3.8491		0.5548		H		1		UNL1		0.1371
47		H		0.9141		-4.7444		-0.9677		H		1		UNL1		0.1388
48		H		2.3828		-4.2008		-0.1290		H		1		UNL1		0.1857
49		H		4.5407		-0.4009		1.2274		H		1		UNL1		0.3538
@<TRIPOS>BOND
1		45		21		1
2		44		21		1
3		40		16		1
4		29		1		1
5		21		43		1
6		21		20		1
7		30		1		1
8		41		17		1
9		1		28		1
10		1		2		1
11		16		17		ar
12		16		15		ar
13		33		8		1
14		42		20		1
15		17		18		ar
16		39		15		1
17		20		22		1
18		20		19		1
19		47		22		1
20		2		3		1
21		34		8		1
22		15		14		ar
23		8		7		1
24		8		9		1
25		22		48		1
26		22		46		1
27		19		7		ar
28		19		23		ar
29		18		9		ar
30		18		13		ar
31		7		6		ar
32		24		23		2
33		23		25		ar
34		3		4		2
35		3		5		1
36		9		10		ar
37		14		13		ar
38		14		38		1
39		13		12		ar
40		6		5		1
41		6		26		ar
42		25		26		ar
43		25		49		1
44		5		31		1
45		5		32		1
46		26		27		2
47		10		35		1
48		10		11		ar
49		12		11		ar
50		12		37		1
51		11		36		1

