@<TRIPOS>MOLECULE
HYP2005-MC-1233-4-21
 58 61 0 0 0
SMALL
MULLIKEN_CHARGES
****
Gaussian 16 #p B3LYP/6-31G* opt
@<TRIPOS>ATOM
1		C		-7.7153		-0.8706		-0.3126		C.3		1		UNL1		-0.5325
2		C		-6.2506		-0.5912		-0.0788		C.ar		1		UNL1		0.1885
3		C		-5.6024		-1.0782		1.0687		C.ar		1		UNL1		-0.1828
4		C		-4.2509		-0.8426		1.2796		C.ar		1		UNL1		-0.1465
5		C		-3.4954		-0.1261		0.3345		C.ar		1		UNL1		0.0650
6		C		-2.0532		0.0952		0.6151		C.2		1		UNL1		0.4069
7		O		-1.6054		0.0486		1.7533		O.2		1		UNL1		-0.4620
8		C		-1.0757		0.2894		-0.5612		C.3		1		UNL1		-0.2692
9		N		-0.1352		1.3956		-0.3480		N.ar		1		UNL1		-0.5279
10		C		1.1351		1.2445		0.2307		C.ar		1		UNL1		0.3176
11		C		1.4603		-0.1436		0.7406		C.3		1		UNL1		-0.4810
12		C		1.9829		-1.1373		-0.2919		C.ar		1		UNL1		0.1063
13		C		2.3325		-0.7442		-1.5686		C.ar		1		UNL1		-0.1992
14		C		2.8322		-1.6668		-2.5195		C.ar		1		UNL1		-0.1358
15		C		2.9844		-2.9897		-2.1860		C.ar		1		UNL1		-0.1881
16		C		2.6448		-3.4475		-0.8842		C.ar		1		UNL1		0.1374
17		C		2.8004		-4.8110		-0.5188		C.ar		1		UNL1		-0.1941
18		C		2.4758		-5.2498		0.7446		C.ar		1		UNL1		-0.1314
19		C		1.9779		-4.3354		1.7009		C.ar		1		UNL1		-0.1337
20		C		1.8126		-3.0056		1.3780		C.ar		1		UNL1		-0.1993
21		C		2.1363		-2.5158		0.0822		C.ar		1		UNL1		0.0725
22		C		2.0006		2.3006		0.3366		C.ar		1		UNL1		-0.0015
23		C		3.4200		2.1862		0.8853		C.3		1		UNL1		-0.1427
24		C		4.4753		2.6426		-0.1442		C.3		1		UNL1		-0.4562
25		C		3.5821		2.9341		2.2240		C.3		1		UNL1		-0.4526
26		C		1.5512		3.6337		-0.0760		C.ar		1		UNL1		0.6026
27		O		2.1899		4.6769		0.0044		O.2		1		UNL1		-0.5145
28		N		0.2520		3.6751		-0.5997		N.ar		1		UNL1		-0.7011
29		C		-0.6286		2.6331		-0.7627		C.ar		1		UNL1		0.7900
30		O		-1.7481		2.7793		-1.2382		O.2		1		UNL1		-0.5274
31		C		-4.1380		0.3756		-0.8084		C.ar		1		UNL1		-0.1734
32		C		-5.4992		0.1481		-1.0011		C.ar		1		UNL1		-0.1903
33		H		-8.1495		-0.1654		-1.0282		H		1		UNL1		0.1629
34		H		-7.8630		-1.8813		-0.7160		H		1		UNL1		0.1721
35		H		-8.2884		-0.8088		0.6190		H		1		UNL1		0.1654
36		H		-6.1709		-1.6435		1.8037		H		1		UNL1		0.1318
37		H		-3.7542		-1.2085		2.1726		H		1		UNL1		0.1577
38		H		-1.5941		0.4810		-1.4970		H		1		UNL1		0.1958
39		H		-0.5168		-0.6409		-0.6827		H		1		UNL1		0.2030
40		H		0.5602		-0.5296		1.2279		H		1		UNL1		0.2106
41		H		2.1923		-0.0496		1.5475		H		1		UNL1		0.1901
42		H		2.2302		0.2983		-1.8551		H		1		UNL1		0.1376
43		H		3.0949		-1.3159		-3.5137		H		1		UNL1		0.1351
44		H		3.3684		-3.7048		-2.9095		H		1		UNL1		0.1325
45		H		3.1857		-5.5059		-1.2613		H		1		UNL1		0.1328
46		H		2.6011		-6.2959		1.0103		H		1		UNL1		0.1335
47		H		1.7235		-4.6840		2.6981		H		1		UNL1		0.1344
48		H		1.4299		-2.3243		2.1306		H		1		UNL1		0.1432
49		H		3.6230		1.1283		1.0738		H		1		UNL1		0.1321
50		H		4.3678		3.7045		-0.3740		H		1		UNL1		0.1846
51		H		4.3875		2.0720		-1.0762		H		1		UNL1		0.1358
52		H		5.4810		2.4728		0.2581		H		1		UNL1		0.1380
53		H		3.4094		4.0050		2.0922		H		1		UNL1		0.1819
54		H		4.5972		2.7932		2.6143		H		1		UNL1		0.1381
55		H		2.8763		2.5597		2.9748		H		1		UNL1		0.1379
56		H		-0.0877		4.5878		-0.8813		H		1		UNL1		0.3530
57		H		-3.5950		0.9979		-1.5116		H		1		UNL1		0.1825
58		H		-5.9886		0.5597		-1.8804		H		1		UNL1		0.1336
@<TRIPOS>BOND
1		43		14		1
2		44		15		1
3		14		15		ar
4		14		13		ar
5		15		16		ar
6		58		32		1
7		42		13		1
8		13		12		ar
9		57		31		1
10		38		8		1
11		45		17		1
12		30		29		2
13		51		24		1
14		33		1		1
15		32		31		ar
16		32		2		ar
17		16		17		ar
18		16		21		ar
19		56		28		1
20		31		5		ar
21		29		28		ar
22		29		9		ar
23		34		1		1
24		39		8		1
25		28		26		ar
26		8		9		1
27		8		6		1
28		17		18		ar
29		50		24		1
30		9		10		ar
31		1		2		1
32		1		35		1
33		12		21		ar
34		12		11		1
35		24		52		1
36		24		23		1
37		2		3		ar
38		26		27		2
39		26		22		ar
40		21		20		ar
41		10		22		ar
42		10		11		1
43		5		6		1
44		5		4		ar
45		22		23		1
46		6		7		2
47		11		40		1
48		11		41		1
49		18		46		1
50		18		19		ar
51		23		49		1
52		23		25		1
53		3		4		ar
54		3		36		1
55		4		37		1
56		20		19		ar
57		20		48		1
58		19		47		1
59		53		25		1
60		25		54		1
61		25		55		1

