@<TRIPOS>MOLECULE
HYP2005-MC-1233-4-24
 55 58 0 0 0
SMALL
MULLIKEN_CHARGES
****
Gaussian 16 #p B3LYP/6-31G* opt
@<TRIPOS>ATOM
1		C		-5.3979		-0.3093		-0.6950		C.3		1		UNL1		-0.4521
2		C		-4.1897		-0.1590		0.2510		C.3		1		UNL1		-0.1449
3		C		-4.6117		-0.3053		1.7285		C.3		1		UNL1		-0.4555
4		C		-3.0549		-1.1128		-0.1104		C.ar		1		UNL1		-0.0031
5		C		-1.8383		-0.7042		-0.5849		C.ar		1		UNL1		0.3243
6		C		-1.5576		0.7398		-0.9561		C.3		1		UNL1		-0.4702
7		C		-0.8614		1.6083		0.0859		C.ar		1		UNL1		0.1076
8		C		-0.6211		1.1511		1.3653		C.ar		1		UNL1		-0.2023
9		C		0.0101		1.9683		2.3348		C.ar		1		UNL1		-0.1387
10		C		0.3957		3.2472		2.0191		C.ar		1		UNL1		-0.1865
11		C		0.1653		3.7683		0.7169		C.ar		1		UNL1		0.1354
12		C		0.5539		5.0898		0.3722		C.ar		1		UNL1		-0.1933
13		C		0.3236		5.5938		-0.8879		C.ar		1		UNL1		-0.1324
14		C		-0.3119		4.7895		-1.8610		C.ar		1		UNL1		-0.1329
15		C		-0.6997		3.5015		-1.5591		C.ar		1		UNL1		-0.2022
16		C		-0.4745		2.9450		-0.2694		C.ar		1		UNL1		0.0781
17		N		-0.8098		-1.6215		-0.8519		N.ar		1		UNL1		-0.5377
18		C		0.5856		-1.2543		-1.0695		C.3		1		UNL1		-0.2655
19		C		1.4383		-1.4864		0.1952		C.2		1		UNL1		0.4403
20		O		0.9044		-1.7545		1.2573		O.2		1		UNL1		-0.4674
21		C		2.9174		-1.3450		0.0760		C.ar		1		UNL1		0.0848
22		C		3.5626		-1.0009		-1.1232		C.ar		1		UNL1		-0.1790
23		C		4.9482		-0.8720		-1.1750		C.ar		1		UNL1		-0.2021
24		C		5.6805		-1.0945		-0.0136		C.ar		1		UNL1		0.3957
25		F		7.0190		-0.9732		-0.0575		F		1		UNL1		-0.2863
26		C		5.0750		-1.4386		1.1928		C.ar		1		UNL1		-0.1991
27		C		3.6920		-1.5603		1.2291		C.ar		1		UNL1		-0.1527
28		C		-0.9881		-3.0036		-0.7296		C.ar		1		UNL1		0.8041
29		O		-0.1005		-3.8052		-0.9785		O.2		1		UNL1		-0.5266
30		N		-2.2486		-3.3771		-0.3271		N.ar		1		UNL1		-0.7042
31		C		-3.3142		-2.5494		0.0431		C.ar		1		UNL1		0.6074
32		O		-4.3611		-3.0614		0.4235		O.2		1		UNL1		-0.5141
33		H		-5.8259		-1.3119		-0.6186		H		1		UNL1		0.1831
34		H		-5.1098		-0.1355		-1.7389		H		1		UNL1		0.1309
35		H		-6.1751		0.4189		-0.4342		H		1		UNL1		0.1394
36		H		-3.8155		0.8638		0.1483		H		1		UNL1		0.1318
37		H		-5.0323		-1.2941		1.9213		H		1		UNL1		0.1861
38		H		-5.3679		0.4503		1.9724		H		1		UNL1		0.1370
39		H		-3.7568		-0.1526		2.3971		H		1		UNL1		0.1405
40		H		-2.5093		1.2055		-1.2272		H		1		UNL1		0.1936
41		H		-0.9809		0.7436		-1.8890		H		1		UNL1		0.1696
42		H		-0.9010		0.1392		1.6382		H		1		UNL1		0.1646
43		H		0.1870		1.5685		3.3291		H		1		UNL1		0.1400
44		H		0.8812		3.8801		2.7580		H		1		UNL1		0.1328
45		H		1.0390		5.7013		1.1294		H		1		UNL1		0.1341
46		H		0.6257		6.6074		-1.1366		H		1		UNL1		0.1340
47		H		-0.4977		5.1908		-2.8536		H		1		UNL1		0.1328
48		H		-1.1923		2.9088		-2.3232		H		1		UNL1		0.1292
49		H		0.9772		-1.8622		-1.8878		H		1		UNL1		0.2072
50		H		0.6633		-0.2048		-1.3521		H		1		UNL1		0.1924
51		H		2.9932		-0.8306		-2.0312		H		1		UNL1		0.1465
52		H		5.4638		-0.6072		-2.0918		H		1		UNL1		0.1570
53		H		5.6885		-1.6040		2.0722		H		1		UNL1		0.1590
54		H		3.1814		-1.8262		2.1484		H		1		UNL1		0.1763
55		H		-2.4019		-4.3746		-0.2304		H		1		UNL1		0.3533
@<TRIPOS>BOND
1		47		14		1
2		48		15		1
3		52		23		1
4		51		22		1
5		41		6		1
6		49		18		1
7		14		15		ar
8		14		13		ar
9		34		1		1
10		15		16		ar
11		50		18		1
12		40		6		1
13		23		22		ar
14		23		24		ar
15		46		13		1
16		22		21		ar
17		18		17		1
18		18		19		1
19		29		28		2
20		6		5		1
21		6		7		1
22		13		12		ar
23		17		28		ar
24		17		5		ar
25		28		30		ar
26		1		33		1
27		1		35		1
28		1		2		1
29		5		4		ar
30		30		55		1
31		30		31		ar
32		16		7		ar
33		16		11		ar
34		4		31		ar
35		4		2		1
36		25		24		1
37		24		26		ar
38		31		32		2
39		21		19		1
40		21		27		ar
41		7		8		ar
42		36		2		1
43		19		20		2
44		2		3		1
45		12		11		ar
46		12		45		1
47		11		10		ar
48		26		27		ar
49		26		53		1
50		27		54		1
51		8		42		1
52		8		9		ar
53		3		37		1
54		3		38		1
55		3		39		1
56		10		9		ar
57		10		44		1
58		9		43		1

