@<TRIPOS>MOLECULE
HYP2005-MC-1233-4-8
 49 51 0 0 0
SMALL
MULLIKEN_CHARGES
****
Gaussian 16 #p B3LYP/6-31G* opt
@<TRIPOS>ATOM
1		C		-0.0599		3.6207		1.7175		C.3		1		UNL1		-0.5433
2		C		-0.9536		2.7971		0.8226		C.ar		1		UNL1		0.0023
3		C		-0.6684		1.5236		0.4276		C.ar		1		UNL1		0.3378
4		C		0.5751		0.8095		0.9044		C.3		1		UNL1		-0.4542
5		C		1.7511		0.7818		-0.0688		C.ar		1		UNL1		0.1015
6		C		1.7623		1.5560		-1.2120		C.ar		1		UNL1		-0.1983
7		C		2.8608		1.5450		-2.1054		C.ar		1		UNL1		-0.1352
8		C		3.9532		0.7544		-1.8482		C.ar		1		UNL1		-0.1876
9		C		3.9973		-0.0556		-0.6814		C.ar		1		UNL1		0.1368
10		C		5.1223		-0.8736		-0.3950		C.ar		1		UNL1		-0.1935
11		C		5.1667		-1.6495		0.7409		C.ar		1		UNL1		-0.1316
12		C		4.0789		-1.6374		1.6437		C.ar		1		UNL1		-0.1334
13		C		2.9703		-0.8575		1.3936		C.ar		1		UNL1		-0.2007
14		C		2.8868		-0.0459		0.2282		C.ar		1		UNL1		0.0747
15		N		-1.5182		0.8166		-0.4304		N.ar		1		UNL1		-0.5297
16		C		-1.2446		-0.5413		-0.8850		C.3		1		UNL1		-0.2805
17		C		-1.7549		-1.5999		0.0915		C.2		1		UNL1		0.6522
18		O		-2.0274		-1.3886		1.2538		O.2		1		UNL1		-0.4784
19		O		-1.8103		-2.7915		-0.5200		O.3		1		UNL1		-0.4646
20		C		-2.2408		-3.9423		0.2776		C.3		1		UNL1		0.1232
21		C		-3.7640		-3.9940		0.2987		C.3		1		UNL1		-0.4581
22		C		-1.5935		-5.1591		-0.3673		C.3		1		UNL1		-0.4532
23		C		-2.7598		1.3219		-0.8336		C.ar		1		UNL1		0.7888
24		O		-3.5465		0.6812		-1.5146		O.2		1		UNL1		-0.5223
25		N		-3.0090		2.6096		-0.4127		N.ar		1		UNL1		-0.7022
26		C		-2.2031		3.4266		0.3919		C.ar		1		UNL1		0.5984
27		O		-2.5745		4.5568		0.6790		O.2		1		UNL1		-0.5129
28		H		-0.0748		3.2643		2.7559		H		1		UNL1		0.1644
29		H		0.9808		3.6205		1.3769		H		1		UNL1		0.1608
30		H		-0.4237		4.6501		1.7202		H		1		UNL1		0.1976
31		H		0.2946		-0.2089		1.1914		H		1		UNL1		0.1861
32		H		0.8965		1.2883		1.8349		H		1		UNL1		0.1906
33		H		0.9127		2.1947		-1.4353		H		1		UNL1		0.1406
34		H		2.8289		2.1680		-2.9948		H		1		UNL1		0.1376
35		H		4.8005		0.7386		-2.5294		H		1		UNL1		0.1341
36		H		5.9552		-0.8727		-1.0942		H		1		UNL1		0.1344
37		H		6.0349		-2.2690		0.9478		H		1		UNL1		0.1348
38		H		4.1183		-2.2468		2.5425		H		1		UNL1		0.1345
39		H		2.1524		-0.8619		2.1066		H		1		UNL1		0.1382
40		H		-1.7420		-0.6809		-1.8445		H		1		UNL1		0.2270
41		H		-0.1718		-0.6764		-1.0398		H		1		UNL1		0.2066
42		H		-1.8600		-3.7907		1.2917		H		1		UNL1		0.1620
43		H		-4.1749		-3.0929		0.7619		H		1		UNL1		0.1797
44		H		-4.1002		-4.8615		0.8777		H		1		UNL1		0.1502
45		H		-4.1610		-4.0820		-0.7184		H		1		UNL1		0.1587
46		H		-0.5033		-5.0619		-0.3804		H		1		UNL1		0.1585
47		H		-1.9424		-5.2843		-1.3980		H		1		UNL1		0.1604
48		H		-1.8529		-6.0619		0.1961		H		1		UNL1		0.1531
49		H		-3.8992		2.9984		-0.7021		H		1		UNL1		0.3536
@<TRIPOS>BOND
1		34		7		1
2		35		8		1
3		7		8		ar
4		7		6		ar
5		8		9		ar
6		40		16		1
7		24		23		2
8		33		6		1
9		47		22		1
10		6		5		ar
11		36		10		1
12		41		16		1
13		16		15		1
14		16		17		1
15		23		15		ar
16		23		25		ar
17		45		21		1
18		49		25		1
19		9		10		ar
20		9		14		ar
21		19		17		1
22		19		20		1
23		15		3		ar
24		25		26		ar
25		10		11		ar
26		46		22		1
27		22		48		1
28		22		20		1
29		5		14		ar
30		5		4		1
31		17		18		2
32		14		13		ar
33		20		21		1
34		20		42		1
35		21		43		1
36		21		44		1
37		26		27		2
38		26		2		ar
39		3		2		ar
40		3		4		1
41		11		37		1
42		11		12		ar
43		2		1		1
44		4		31		1
45		4		32		1
46		29		1		1
47		13		12		ar
48		13		39		1
49		12		38		1
50		1		30		1
51		1		28		1

