@<TRIPOS>MOLECULE
HYP2005-MC-1233-4-22
 59 62 0 0 0
SMALL
MULLIKEN_CHARGES
****
Gaussian 16 #p B3LYP/6-31G* opt
@<TRIPOS>ATOM
1		C		-7.8910		0.5834		-0.6263		C.3		1		UNL1		-0.2218
2		O		-6.9395		0.3119		0.3959		O.3		1		UNL1		-0.4987
3		C		-5.6330		0.5913		0.1606		C.ar		1		UNL1		0.3906
4		C		-4.7516		0.3078		1.2177		C.ar		1		UNL1		-0.1775
5		C		-3.3964		0.5601		1.0792		C.ar		1		UNL1		-0.1834
6		C		-2.8801		1.0970		-0.1162		C.ar		1		UNL1		0.0841
7		C		-1.4391		1.3820		-0.3290		C.2		1		UNL1		0.4181
8		O		-1.0129		1.8258		-1.3854		O.2		1		UNL1		-0.4747
9		C		-0.4634		1.0744		0.8211		C.3		1		UNL1		-0.2847
10		N		0.8759		1.6005		0.5755		N.ar		1		UNL1		-0.5293
11		C		1.8475		0.9170		-0.1677		C.ar		1		UNL1		0.3267
12		C		1.4194		-0.4258		-0.7218		C.3		1		UNL1		-0.4673
13		C		1.5105		-1.6115		0.2340		C.ar		1		UNL1		0.1074
14		C		2.1156		-1.5030		1.4703		C.ar		1		UNL1		-0.1986
15		C		2.2115		-2.6088		2.3498		C.ar		1		UNL1		-0.1363
16		C		1.6995		-3.8293		1.9851		C.ar		1		UNL1		-0.1880
17		C		1.0717		-3.9979		0.7214		C.ar		1		UNL1		0.1367
18		C		0.5414		-5.2540		0.3240		C.ar		1		UNL1		-0.1937
19		C		-0.0599		-5.4158		-0.9034		C.ar		1		UNL1		-0.1315
20		C		-0.1552		-4.3190		-1.7900		C.ar		1		UNL1		-0.1329
21		C		0.3471		-3.0857		-1.4340		C.ar		1		UNL1		-0.1995
22		C		0.9725		-2.8797		-0.1731		C.ar		1		UNL1		0.0739
23		C		3.0960		1.4409		-0.3717		C.ar		1		UNL1		-0.0044
24		C		4.2216		0.7094		-1.0969		C.3		1		UNL1		-0.1431
25		C		5.4674		0.5362		-0.2027		C.3		1		UNL1		-0.4555
26		C		4.5815		1.3873		-2.4344		C.3		1		UNL1		-0.4520
27		C		3.3825		2.7957		0.1102		C.ar		1		UNL1		0.6045
28		O		4.4304		3.4153		-0.0378		O.2		1		UNL1		-0.5171
29		N		2.3249		3.4073		0.7936		N.ar		1		UNL1		-0.7002
30		C		1.0714		2.9014		1.0488		C.ar		1		UNL1		0.7927
31		O		0.2131		3.5299		1.6508		O.2		1		UNL1		-0.5250
32		C		-3.7726		1.3722		-1.1629		C.ar		1		UNL1		-0.1660
33		C		-5.1352		1.1282		-1.0375		C.ar		1		UNL1		-0.1966
34		H		-7.6848		-0.0020		-1.5311		H		1		UNL1		0.1593
35		H		-8.8580		0.2882		-0.2165		H		1		UNL1		0.1779
36		H		-7.9129		1.6506		-0.8796		H		1		UNL1		0.1613
37		H		-5.1591		-0.1053		2.1346		H		1		UNL1		0.1489
38		H		-2.7401		0.3354		1.9142		H		1		UNL1		0.1447
39		H		-0.8210		1.5502		1.7356		H		1		UNL1		0.2190
40		H		-0.4137		-0.0026		1.0014		H		1		UNL1		0.1965
41		H		2.0186		-0.6370		-1.6114		H		1		UNL1		0.1925
42		H		0.3982		-0.3252		-1.0998		H		1		UNL1		0.1869
43		H		2.5352		-0.5505		1.7796		H		1		UNL1		0.1412
44		H		2.6952		-2.4805		3.3141		H		1		UNL1		0.1363
45		H		1.7692		-4.6836		2.6540		H		1		UNL1		0.1330
46		H		0.6224		-6.0920		1.0124		H		1		UNL1		0.1334
47		H		-0.4600		-6.3832		-1.1943		H		1		UNL1		0.1338
48		H		-0.6274		-4.4498		-2.7599		H		1		UNL1		0.1341
49		H		0.2648		-2.2617		-2.1351		H		1		UNL1		0.1388
50		H		3.8743		-0.3023		-1.3257		H		1		UNL1		0.1291
51		H		5.2154		0.0077		0.7242		H		1		UNL1		0.1349
52		H		5.9033		1.5036		0.0551		H		1		UNL1		0.1850
53		H		6.2228		-0.0572		-0.7314		H		1		UNL1		0.1367
54		H		5.3585		0.8122		-2.9523		H		1		UNL1		0.1364
55		H		3.7084		1.4483		-3.0947		H		1		UNL1		0.1379
56		H		4.9568		2.3995		-2.2653		H		1		UNL1		0.1827
57		H		2.4911		4.3526		1.1196		H		1		UNL1		0.3521
58		H		-3.3716		1.7869		-2.0821		H		1		UNL1		0.1684
59		H		-5.7977		1.3557		-1.8646		H		1		UNL1		0.1425
@<TRIPOS>BOND
1		55		26		1
2		54		26		1
3		48		20		1
4		26		56		1
5		26		24		1
6		49		21		1
7		58		32		1
8		59		33		1
9		20		21		ar
10		20		19		ar
11		41		12		1
12		34		1		1
13		21		22		ar
14		8		7		2
15		50		24		1
16		47		19		1
17		32		33		ar
18		32		6		ar
19		42		12		1
20		24		23		1
21		24		25		1
22		33		3		ar
23		19		18		ar
24		36		1		1
25		53		25		1
26		12		11		1
27		12		13		1
28		1		35		1
29		1		2		1
30		23		11		ar
31		23		27		ar
32		7		6		1
33		7		9		1
34		25		52		1
35		25		51		1
36		22		13		ar
37		22		17		ar
38		11		10		ar
39		6		5		ar
40		28		27		2
41		27		29		ar
42		3		2		1
43		3		4		ar
44		13		14		ar
45		18		17		ar
46		18		46		1
47		10		9		1
48		10		30		ar
49		17		16		ar
50		29		30		ar
51		29		57		1
52		9		40		1
53		9		39		1
54		30		31		2
55		5		4		ar
56		5		38		1
57		4		37		1
58		14		43		1
59		14		15		ar
60		16		15		ar
61		16		45		1
62		15		44		1

