@<TRIPOS>MOLECULE
HYP2005-MC-1233-4-3
 53 56 0 0 0
SMALL
MULLIKEN_CHARGES
****
Gaussian 16 #p B3LYP/6-31G* opt
@<TRIPOS>ATOM
1		C		7.6767		-1.9498		-0.1683		C.3		1		UNL1		-0.2211
2		O		6.8768		-1.1321		0.6769		O.3		1		UNL1		-0.4977
3		C		5.5931		-0.8806		0.3163		C.ar		1		UNL1		0.3907
4		C		4.9776		-1.3856		-0.8410		C.ar		1		UNL1		-0.1983
5		C		3.6540		-1.0574		-1.1074		C.ar		1		UNL1		-0.1581
6		C		2.9101		-0.2484		-0.2330		C.ar		1		UNL1		0.0642
7		C		1.5039		0.0476		-0.5877		C.2		1		UNL1		0.4030
8		O		1.0852		-0.0830		-1.7326		O.2		1		UNL1		-0.4706
9		C		0.5035		0.4417		0.5197		C.3		1		UNL1		-0.2663
10		N		-0.2642		1.6492		0.1918		N.ar		1		UNL1		-0.5309
11		C		-1.4876		1.6298		-0.4902		C.ar		1		UNL1		0.3313
12		C		-2.0112		0.2825		-0.9293		C.3		1		UNL1		-0.4685
13		C		-2.7184		-0.5407		0.1445		C.ar		1		UNL1		0.1030
14		C		-3.0833		0.0094		1.3574		C.ar		1		UNL1		-0.1990
15		C		-3.7587		-0.7488		2.3442		C.ar		1		UNL1		-0.1353
16		C		-4.0717		-2.0650		2.1112		C.ar		1		UNL1		-0.1887
17		C		-3.7257		-2.6794		0.8774		C.ar		1		UNL1		0.1377
18		C		-4.0473		-4.0377		0.6156		C.ar		1		UNL1		-0.1942
19		C		-3.7179		-4.6280		-0.5832		C.ar		1		UNL1		-0.1315
20		C		-3.0477		-3.8774		-1.5762		C.ar		1		UNL1		-0.1340
21		C		-2.7182		-2.5578		-1.3531		C.ar		1		UNL1		-0.1984
22		C		-3.0406		-1.9144		-0.1258		C.ar		1		UNL1		0.0714
23		C		-2.1747		2.7800		-0.7500		C.ar		1		UNL1		0.0049
24		C		-3.5088		2.8193		-1.4552		C.3		1		UNL1		-0.5429
25		C		-1.6131		4.0696		-0.3488		C.ar		1		UNL1		0.5957
26		O		-2.1240		5.1671		-0.5298		O.2		1		UNL1		-0.5138
27		N		-0.3731		3.9764		0.2991		N.ar		1		UNL1		-0.7015
28		C		0.3464		2.8403		0.5916		C.ar		1		UNL1		0.7868
29		O		1.4283		2.8739		1.1649		O.2		1		UNL1		-0.5264
30		C		3.5451		0.2600		0.9184		C.ar		1		UNL1		-0.1786
31		C		4.8693		-0.0479		1.1859		C.ar		1		UNL1		-0.1827
32		H		7.2584		-2.9599		-0.2619		H		1		UNL1		0.1584
33		H		8.6542		-2.0061		0.3129		H		1		UNL1		0.1772
34		H		7.7870		-1.5073		-1.1662		H		1		UNL1		0.1603
35		H		5.5199		-2.0247		-1.5281		H		1		UNL1		0.1404
36		H		3.1682		-1.4327		-2.0025		H		1		UNL1		0.1614
37		H		0.9896		0.6174		1.4756		H		1		UNL1		0.1941
38		H		-0.1867		-0.3943		0.6492		H		1		UNL1		0.2008
39		H		-2.7047		0.4495		-1.7598		H		1		UNL1		0.1861
40		H		-1.1734		-0.2759		-1.3576		H		1		UNL1		0.2130
41		H		-2.8543		1.0508		1.5640		H		1		UNL1		0.1370
42		H		-4.0267		-0.2775		3.2858		H		1		UNL1		0.1352
43		H		-4.5902		-2.6547		2.8632		H		1		UNL1		0.1322
44		H		-4.5647		-4.6055		1.3855		H		1		UNL1		0.1325
45		H		-3.9715		-5.6679		-0.7699		H		1		UNL1		0.1330
46		H		-2.7902		-4.3449		-2.5227		H		1		UNL1		0.1337
47		H		-2.2058		-2.0038		-2.1324		H		1		UNL1		0.1432
48		H		-4.2307		2.1245		-1.0134		H		1		UNL1		0.1620
49		H		-3.9118		3.8314		-1.3820		H		1		UNL1		0.1965
50		H		-3.4182		2.5765		-2.5221		H		1		UNL1		0.1641
51		H		0.0555		4.8501		0.5826		H		1		UNL1		0.3533
52		H		3.0209		0.9493		1.5712		H		1		UNL1		0.1859
53		H		5.3750		0.3521		2.0588		H		1		UNL1		0.1495
@<TRIPOS>BOND
1		46		20		1
2		50		24		1
3		47		21		1
4		36		5		1
5		39		12		1
6		8		7		2
7		20		21		ar
8		20		19		ar
9		35		4		1
10		24		49		1
11		24		48		1
12		24		23		1
13		40		12		1
14		21		22		ar
15		34		1		1
16		5		4		ar
17		5		6		ar
18		12		11		1
19		12		13		1
20		4		3		ar
21		45		19		1
22		23		11		ar
23		23		25		ar
24		7		6		1
25		7		9		1
26		19		18		ar
27		26		25		2
28		11		10		ar
29		25		27		ar
30		32		1		1
31		6		30		ar
32		1		33		1
33		1		2		1
34		22		13		ar
35		22		17		ar
36		13		14		ar
37		10		9		1
38		10		28		ar
39		27		51		1
40		27		28		ar
41		3		2		1
42		3		31		ar
43		9		38		1
44		9		37		1
45		28		29		2
46		18		17		ar
47		18		44		1
48		17		16		ar
49		30		31		ar
50		30		52		1
51		31		53		1
52		14		41		1
53		14		15		ar
54		16		15		ar
55		16		43		1
56		15		42		1

