@<TRIPOS>MOLECULE
HYP2005-MC-1233-4-25
 55 58 0 0 0
SMALL
MULLIKEN_CHARGES
****
Gaussian 16 #p B3LYP/6-31G* opt
@<TRIPOS>ATOM
1		C		3.6806		3.1185		-2.1652		C.3		1		UNL1		-0.4529
2		C		3.5133		2.3667		-0.8292		C.3		1		UNL1		-0.1435
3		C		4.4880		2.9002		0.2418		C.3		1		UNL1		-0.4565
4		C		2.0668		2.3829		-0.3433		C.ar		1		UNL1		-0.0006
5		C		1.2747		1.2689		-0.2662		C.ar		1		UNL1		0.3161
6		C		1.7163		-0.0961		-0.7497		C.3		1		UNL1		-0.4808
7		C		2.2510		-1.0489		0.3150		C.ar		1		UNL1		0.1038
8		C		2.5218		-0.6248		1.6009		C.ar		1		UNL1		-0.1993
9		C		3.0328		-1.5082		2.5825		C.ar		1		UNL1		-0.1359
10		C		3.2753		-2.8229		2.2705		C.ar		1		UNL1		-0.1877
11		C		3.0195		-3.3110		0.9605		C.ar		1		UNL1		0.1371
12		C		3.2693		-4.6664		0.6177		C.ar		1		UNL1		-0.1939
13		C		3.0261		-5.1345		-0.6534		C.ar		1		UNL1		-0.1313
14		C		2.5191		-4.2588		-1.6407		C.ar		1		UNL1		-0.1335
15		C		2.2633		-2.9381		-1.3404		C.ar		1		UNL1		-0.1998
16		C		2.5006		-2.4191		-0.0373		C.ar		1		UNL1		0.0732
17		N		-0.0289		1.3350		0.2550		N.ar		1		UNL1		-0.5286
18		C		-0.8955		0.1664		0.4455		C.3		1		UNL1		-0.2682
19		C		-1.8205		-0.0979		-0.7589		C.2		1		UNL1		0.4105
20		O		-1.3325		-0.1739		-1.8773		O.2		1		UNL1		-0.4542
21		C		-3.2703		-0.3493		-0.5303		C.ar		1		UNL1		0.0626
22		C		-3.9578		-1.1328		-1.4721		C.ar		1		UNL1		-0.1474
23		C		-5.3123		-1.4060		-1.3119		C.ar		1		UNL1		-0.2058
24		C		-5.9855		-0.8750		-0.2172		C.ar		1		UNL1		0.3331
25		F		-7.2909		-1.1179		-0.0397		F		1		UNL1		-0.2721
26		C		-5.3154		-0.0748		0.7098		C.ar		1		UNL1		0.3211
27		F		-6.0076		0.4407		1.7380		F		1		UNL1		-0.2774
28		C		-3.9633		0.1893		0.5683		C.ar		1		UNL1		-0.2540
29		C		-0.6250		2.5367		0.6374		C.ar		1		UNL1		0.7919
30		O		-1.7730		2.6044		1.0615		O.2		1		UNL1		-0.5279
31		N		0.1854		3.6368		0.5052		N.ar		1		UNL1		-0.7014
32		C		1.5071		3.6836		0.0393		C.ar		1		UNL1		0.6033
33		O		2.0739		4.7681		-0.0215		O.2		1		UNL1		-0.5111
34		H		3.0358		2.6926		-2.9429		H		1		UNL1		0.1378
35		H		4.7189		3.0467		-2.5102		H		1		UNL1		0.1396
36		H		3.4289		4.1755		-2.0490		H		1		UNL1		0.1825
37		H		3.7978		1.3249		-1.0012		H		1		UNL1		0.1329
38		H		4.3989		2.3299		1.1737		H		1		UNL1		0.1365
39		H		4.2983		3.9535		0.4579		H		1		UNL1		0.1851
40		H		5.5196		2.7981		-0.1151		H		1		UNL1		0.1394
41		H		2.4794		0.0430		-1.5204		H		1		UNL1		0.1914
42		H		0.8687		-0.5441		-1.2770		H		1		UNL1		0.2098
43		H		2.3469		0.4125		1.8714		H		1		UNL1		0.1376
44		H		3.2316		-1.1340		3.5829		H		1		UNL1		0.1364
45		H		3.6681		-3.5080		3.0177		H		1		UNL1		0.1340
46		H		3.6610		-5.3312		1.3840		H		1		UNL1		0.1341
47		H		3.2231		-6.1737		-0.9015		H		1		UNL1		0.1348
48		H		2.3300		-4.6303		-2.6441		H		1		UNL1		0.1352
49		H		1.8766		-2.2867		-2.1171		H		1		UNL1		0.1424
50		H		-0.2770		-0.7223		0.5852		H		1		UNL1		0.2066
51		H		-1.4541		0.3216		1.3652		H		1		UNL1		0.1965
52		H		-3.4119		-1.5250		-2.3230		H		1		UNL1		0.1696
53		H		-5.8609		-2.0208		-2.0178		H		1		UNL1		0.1649
54		H		-3.4846		0.8645		1.2686		H		1		UNL1		0.2089
55		H		-0.2290		4.5249		0.7650		H		1		UNL1		0.3551
@<TRIPOS>BOND
1		34		1		1
2		48		14		1
3		35		1		1
4		52		22		1
5		1		36		1
6		1		2		1
7		49		15		1
8		53		23		1
9		20		19		2
10		14		15		ar
11		14		13		ar
12		41		6		1
13		22		23		ar
14		22		21		ar
15		15		16		ar
16		23		24		ar
17		42		6		1
18		37		2		1
19		47		13		1
20		2		4		1
21		2		3		1
22		19		21		1
23		19		18		1
24		6		5		1
25		6		7		1
26		13		12		ar
27		21		28		ar
28		4		5		ar
29		4		32		ar
30		5		17		ar
31		24		25		1
32		24		26		ar
33		40		3		1
34		16		7		ar
35		16		11		ar
36		33		32		2
37		32		31		ar
38		3		39		1
39		3		38		1
40		17		18		1
41		17		29		ar
42		7		8		ar
43		18		50		1
44		18		51		1
45		31		29		ar
46		31		55		1
47		28		26		ar
48		28		54		1
49		12		11		ar
50		12		46		1
51		29		30		2
52		26		27		1
53		11		10		ar
54		8		43		1
55		8		9		ar
56		10		9		ar
57		10		45		1
58		9		44		1

