@<TRIPOS>MOLECULE
HYP2005-MC-1233-4-39
 47 49 0 0 0
SMALL
MULLIKEN_CHARGES
****
Gaussian 16 #p B3LYP/6-31G* opt
@<TRIPOS>ATOM
1		C		1.2603		-4.1546		-1.8575		C.3		1		UNL1		-0.4663
2		C		2.3603		-3.6576		-0.9331		C.3		1		UNL1		-0.0490
3		O		1.9853		-2.4103		-0.2892		O.3		1		UNL1		-0.4548
4		C		1.2774		-2.5120		0.8493		C.2		1		UNL1		0.6447
5		O		0.9013		-3.5476		1.3501		O.2		1		UNL1		-0.4694
6		C		0.9634		-1.1531		1.4732		C.3		1		UNL1		-0.2797
7		N		1.5958		0.0003		0.8400		N.ar		1		UNL1		-0.5436
8		C		1.0161		0.6818		-0.2347		C.ar		1		UNL1		0.3344
9		C		-0.3437		0.2463		-0.7191		C.3		1		UNL1		-0.4397
10		C		-1.5323		0.6755		0.1376		C.ar		1		UNL1		0.1050
11		C		-1.3938		1.5843		1.1678		C.ar		1		UNL1		-0.1993
12		C		-2.5007		1.9977		1.9479		C.ar		1		UNL1		-0.1353
13		C		-3.7529		1.4972		1.6908		C.ar		1		UNL1		-0.1872
14		C		-3.9532		0.5661		0.6362		C.ar		1		UNL1		0.1372
15		C		-5.2426		0.0440		0.3504		C.ar		1		UNL1		-0.1929
16		C		-5.4360		-0.8492		-0.6785		C.ar		1		UNL1		-0.1310
17		C		-4.3388		-1.2580		-1.4706		C.ar		1		UNL1		-0.1320
18		C		-3.0738		-0.7731		-1.2173		C.ar		1		UNL1		-0.1968
19		C		-2.8341		0.1468		-0.1591		C.ar		1		UNL1		0.0757
20		C		1.6806		1.7007		-0.8519		C.ar		1		UNL1		0.2015
21		O		1.1415		2.2988		-1.9582		O.3		1		UNL1		-0.5236
22		C		0.8878		3.7083		-1.8473		C.3		1		UNL1		-0.2255
23		C		3.0220		2.1001		-0.4237		C.ar		1		UNL1		0.6215
24		O		3.7053		2.9841		-0.9206		O.2		1		UNL1		-0.5068
25		N		3.4902		1.3571		0.6671		N.ar		1		UNL1		-0.7121
26		C		2.8827		0.2908		1.3038		C.ar		1		UNL1		0.7868
27		O		3.4220		-0.3327		2.2045		O.2		1		UNL1		-0.5170
28		H		0.3621		-4.4085		-1.2875		H		1		UNL1		0.1779
29		H		1.5986		-5.0553		-2.3824		H		1		UNL1		0.1574
30		H		1.0078		-3.3973		-2.6072		H		1		UNL1		0.1580
31		H		2.5914		-4.3911		-0.1575		H		1		UNL1		0.1791
32		H		3.2699		-3.4090		-1.4841		H		1		UNL1		0.1625
33		H		1.3121		-1.1974		2.5057		H		1		UNL1		0.2337
34		H		-0.1196		-1.0219		1.4945		H		1		UNL1		0.2102
35		H		-0.4607		0.6559		-1.7268		H		1		UNL1		0.2112
36		H		-0.3389		-0.8440		-0.8325		H		1		UNL1		0.1713
37		H		-0.4149		1.9985		1.3908		H		1		UNL1		0.1343
38		H		-2.3477		2.7123		2.7518		H		1		UNL1		0.1365
39		H		-4.6081		1.8066		2.2864		H		1		UNL1		0.1344
40		H		-6.0804		0.3679		0.9634		H		1		UNL1		0.1346
41		H		-6.4284		-1.2398		-0.8858		H		1		UNL1		0.1353
42		H		-4.4949		-1.9591		-2.2859		H		1		UNL1		0.1344
43		H		-2.2509		-1.0970		-1.8457		H		1		UNL1		0.1341
44		H		0.1670		3.9076		-1.0437		H		1		UNL1		0.1411
45		H		0.4556		4.0063		-2.8046		H		1		UNL1		0.1631
46		H		1.8161		4.2555		-1.6692		H		1		UNL1		0.1890
47		H		4.4259		1.5768		0.9904		H		1		UNL1		0.3567
@<TRIPOS>BOND
1		45		22		1
2		30		1		1
3		29		1		1
4		42		17		1
5		21		22		1
6		21		20		1
7		1		28		1
8		1		2		1
9		22		46		1
10		22		44		1
11		43		18		1
12		35		9		1
13		32		2		1
14		17		18		ar
15		17		16		ar
16		18		19		ar
17		2		3		1
18		2		31		1
19		24		23		2
20		41		16		1
21		20		23		ar
22		20		8		ar
23		36		9		1
24		9		8		1
25		9		10		1
26		16		15		ar
27		23		25		ar
28		3		4		1
29		8		7		ar
30		19		10		ar
31		19		14		ar
32		10		11		ar
33		15		14		ar
34		15		40		1
35		14		13		ar
36		25		47		1
37		25		26		ar
38		7		26		ar
39		7		6		1
40		4		5		2
41		4		6		1
42		11		37		1
43		11		12		ar
44		26		27		2
45		6		34		1
46		6		33		1
47		13		12		ar
48		13		39		1
49		12		38		1

