@<TRIPOS>MOLECULE
HYP2005-MC-1233-5-2
 52 55 0 0 0
SMALL
MULLIKEN_CHARGES
****
Gaussian 16 #p B3LYP/6-31G* opt
@<TRIPOS>ATOM
1		C		5.0759		-1.1442		0.6259		C.3		1		UNL1		-0.4451
2		C		4.0687		-0.7762		-0.4783		C.3		1		UNL1		-0.3353
3		C		3.1860		0.3992		-0.1215		C.ar		1		UNL1		-0.0134
4		C		1.9300		0.2990		0.4019		C.ar		1		UNL1		0.3377
5		C		1.3330		-1.0436		0.7717		C.3		1		UNL1		-0.4640
6		C		0.3659		-1.6756		-0.2243		C.ar		1		UNL1		0.1051
7		C		0.1858		-1.1514		-1.4878		C.ar		1		UNL1		-0.1992
8		C		-0.6961		-1.7536		-2.4180		C.ar		1		UNL1		-0.1375
9		C		-1.3927		-2.8869		-2.0799		C.ar		1		UNL1		-0.1867
10		C		-1.2356		-3.4723		-0.7943		C.ar		1		UNL1		0.1355
11		C		-1.9429		-4.6479		-0.4283		C.ar		1		UNL1		-0.1933
12		C		-1.7820		-5.2181		0.8141		C.ar		1		UNL1		-0.1326
13		C		-0.8977		-4.6308		1.7473		C.ar		1		UNL1		-0.1330
14		C		-0.1982		-3.4875		1.4243		C.ar		1		UNL1		-0.2019
15		C		-0.3425		-2.8669		0.1524		C.ar		1		UNL1		0.0779
16		N		1.1751		1.4418		0.7003		N.ar		1		UNL1		-0.5392
17		C		-0.2483		1.4276		1.0181		C.3		1		UNL1		-0.2656
18		C		-1.1077		1.8609		-0.1877		C.2		1		UNL1		0.4392
19		O		-0.5988		2.0069		-1.2849		O.2		1		UNL1		-0.4651
20		C		-2.5696		2.0677		0.0345		C.ar		1		UNL1		0.0860
21		C		-3.3482		2.4751		-1.0611		C.ar		1		UNL1		-0.1508
22		C		-4.7166		2.6774		-0.9168		C.ar		1		UNL1		-0.1329
23		C		-5.3266		2.4720		0.3245		C.ar		1		UNL1		-0.1164
24		C		-4.5626		2.0652		1.4197		C.ar		1		UNL1		-0.1334
25		C		-3.1902		1.8650		1.2772		C.ar		1		UNL1		-0.1794
26		C		1.6857		2.7366		0.5461		C.ar		1		UNL1		0.8024
27		O		1.0410		3.7332		0.8335		O.2		1		UNL1		-0.5254
28		N		2.9750		2.7893		0.0643		N.ar		1		UNL1		-0.7061
29		C		3.7833		1.7194		-0.3331		C.ar		1		UNL1		0.6084
30		O		4.9004		1.9284		-0.7894		O.2		1		UNL1		-0.5161
31		H		4.5703		-1.4455		1.5515		H		1		UNL1		0.1346
32		H		5.7154		-1.9742		0.3046		H		1		UNL1		0.1468
33		H		5.7190		-0.2885		0.8527		H		1		UNL1		0.1717
34		H		3.4623		-1.6467		-0.7476		H		1		UNL1		0.1449
35		H		4.6295		-0.4955		-1.3757		H		1		UNL1		0.1761
36		H		2.1628		-1.7354		0.9448		H		1		UNL1		0.1934
37		H		0.8484		-0.9452		1.7510		H		1		UNL1		0.1691
38		H		0.7113		-0.2478		-1.7772		H		1		UNL1		0.1625
39		H		-0.8160		-1.3045		-3.3997		H		1		UNL1		0.1403
40		H		-2.0726		-3.3541		-2.7883		H		1		UNL1		0.1322
41		H		-2.6176		-5.0938		-1.1554		H		1		UNL1		0.1335
42		H		-2.3291		-6.1185		1.0792		H		1		UNL1		0.1332
43		H		-0.7670		-5.0855		2.7255		H		1		UNL1		0.1321
44		H		0.4805		-3.0632		2.1572		H		1		UNL1		0.1288
45		H		-0.5563		0.4284		1.3257		H		1		UNL1		0.1918
46		H		-0.4227		2.1132		1.8504		H		1		UNL1		0.2075
47		H		-2.8533		2.6279		-2.0144		H		1		UNL1		0.1675
48		H		-5.3104		2.9955		-1.7692		H		1		UNL1		0.1422
49		H		-6.3958		2.6300		0.4377		H		1		UNL1		0.1415
50		H		-5.0344		1.9057		2.3851		H		1		UNL1		0.1399
51		H		-2.6122		1.5521		2.1412		H		1		UNL1		0.1376
52		H		3.3563		3.7199		-0.0634		H		1		UNL1		0.3529
@<TRIPOS>BOND
1		39		8		1
2		40		9		1
3		8		9		ar
4		8		7		ar
5		9		10		ar
6		47		21		1
7		38		7		1
8		48		22		1
9		7		6		ar
10		35		2		1
11		19		18		2
12		41		11		1
13		21		22		ar
14		21		20		ar
15		22		23		ar
16		10		11		ar
17		10		15		ar
18		30		29		2
19		34		2		1
20		2		3		1
21		2		1		1
22		11		12		ar
23		29		3		ar
24		29		28		ar
25		6		15		ar
26		6		5		1
27		18		20		1
28		18		17		1
29		3		4		ar
30		52		28		1
31		20		25		ar
32		28		26		ar
33		15		14		ar
34		32		1		1
35		23		49		1
36		23		24		ar
37		4		16		ar
38		4		5		1
39		26		16		ar
40		26		27		2
41		1		33		1
42		1		31		1
43		16		17		1
44		5		36		1
45		5		37		1
46		12		42		1
47		12		13		ar
48		17		45		1
49		17		46		1
50		25		24		ar
51		25		51		1
52		24		50		1
53		14		13		ar
54		14		44		1
55		13		43		1

