@<TRIPOS>MOLECULE
HYP2005-MC-1233-4-31
 59 62 0 0 0
SMALL
MULLIKEN_CHARGES
****
Gaussian 16 #p B3LYP/6-31G* opt
@<TRIPOS>ATOM
1		C		-4.4036		-0.0801		2.1636		C.3		1		UNL1		-0.4475
2		C		-5.2280		-0.7394		1.0558		C.3		1		UNL1		-0.2581
3		C		-4.5870		-0.6822		-0.3511		C.3		1		UNL1		-0.3300
4		C		-3.2752		-1.4284		-0.4907		C.ar		1		UNL1		-0.0106
5		C		-2.0567		-0.8748		-0.7779		C.ar		1		UNL1		0.3342
6		C		-1.8882		0.5942		-1.1156		C.3		1		UNL1		-0.4669
7		C		-1.3022		1.5185		-0.0540		C.ar		1		UNL1		0.1075
8		C		-1.0067		1.0736		1.2177		C.ar		1		UNL1		-0.2065
9		C		-0.4764		1.9452		2.2005		C.ar		1		UNL1		-0.1394
10		C		-0.2482		3.2662		1.9062		C.ar		1		UNL1		-0.1873
11		C		-0.5403		3.7760		0.6121		C.ar		1		UNL1		0.1357
12		C		-0.3128		5.1398		0.2885		C.ar		1		UNL1		-0.1937
13		C		-0.5999		5.6322		-0.9644		C.ar		1		UNL1		-0.1328
14		C		-1.1317		4.7723		-1.9519		C.ar		1		UNL1		-0.1334
15		C		-1.3629		3.4425		-1.6705		C.ar		1		UNL1		-0.2014
16		C		-1.0762		2.8973		-0.3882		C.ar		1		UNL1		0.0766
17		N		-0.9101		-1.6763		-0.9023		N.ar		1		UNL1		-0.5382
18		C		0.4532		-1.1653		-1.0180		C.3		1		UNL1		-0.2609
19		C		1.2542		-1.3712		0.2864		C.2		1		UNL1		0.4364
20		O		0.6795		-1.6924		1.3141		O.2		1		UNL1		-0.4773
21		C		2.7184		-1.1300		0.2485		C.ar		1		UNL1		0.0884
22		C		3.4060		-0.7178		-0.9009		C.ar		1		UNL1		-0.1898
23		C		4.7815		-0.4921		-0.8809		C.ar		1		UNL1		-0.2000
24		C		5.4954		-0.6839		0.3100		C.ar		1		UNL1		0.3902
25		O		6.8329		-0.4982		0.4457		O.3		1		UNL1		-0.4983
26		C		7.5835		-0.0871		-0.6897		C.3		1		UNL1		-0.2207
27		C		4.8181		-1.0984		1.4716		C.ar		1		UNL1		-0.1742
28		C		3.4536		-1.3146		1.4368		C.ar		1		UNL1		-0.1576
29		C		-0.9519		-3.0716		-0.8150		C.ar		1		UNL1		0.8044
30		O		0.0389		-3.7690		-0.9700		O.2		1		UNL1		-0.5259
31		N		-2.2017		-3.5891		-0.5637		N.ar		1		UNL1		-0.7049
32		C		-3.3949		-2.8869		-0.3797		C.ar		1		UNL1		0.6034
33		O		-4.4369		-3.5006		-0.1817		O.2		1		UNL1		-0.5137
34		H		-4.1805		0.9694		1.9345		H		1		UNL1		0.1404
35		H		-3.4484		-0.5951		2.3140		H		1		UNL1		0.1494
36		H		-4.9447		-0.1056		3.1165		H		1		UNL1		0.1420
37		H		-6.2053		-0.2430		0.9856		H		1		UNL1		0.1290
38		H		-5.4266		-1.7856		1.3052		H		1		UNL1		0.1743
39		H		-4.4732		0.3680		-0.6350		H		1		UNL1		0.1336
40		H		-5.3003		-1.1277		-1.0559		H		1		UNL1		0.1597
41		H		-2.8672		0.9802		-1.4094		H		1		UNL1		0.1896
42		H		-1.2839		0.6567		-2.0307		H		1		UNL1		0.1703
43		H		-1.1599		0.0319		1.4757		H		1		UNL1		0.1721
44		H		-0.2509		1.5524		3.1876		H		1		UNL1		0.1408
45		H		0.1585		3.9410		2.6556		H		1		UNL1		0.1315
46		H		0.0944		5.7932		1.0567		H		1		UNL1		0.1328
47		H		-0.4215		6.6786		-1.1966		H		1		UNL1		0.1324
48		H		-1.3617		5.1631		-2.9395		H		1		UNL1		0.1314
49		H		-1.7768		2.8063		-2.4462		H		1		UNL1		0.1287
50		H		0.4371		-0.1003		-1.2467		H		1		UNL1		0.1929
51		H		0.9496		-1.6891		-1.8376		H		1		UNL1		0.2008
52		H		2.8779		-0.5646		-1.8370		H		1		UNL1		0.1375
53		H		5.2825		-0.1738		-1.7876		H		1		UNL1		0.1389
54		H		7.5223		-0.8255		-1.4991		H		1		UNL1		0.1595
55		H		7.2466		0.8891		-1.0610		H		1		UNL1		0.1579
56		H		8.6170		-0.0077		-0.3493		H		1		UNL1		0.1776
57		H		5.3926		-1.2417		2.3811		H		1		UNL1		0.1488
58		H		2.9197		-1.6345		2.3254		H		1		UNL1		0.1677
59		H		-2.2560		-4.5996		-0.5046		H		1		UNL1		0.3523
@<TRIPOS>BOND
1		48		14		1
2		49		15		1
3		42		6		1
4		14		15		ar
5		14		13		ar
6		51		18		1
7		52		22		1
8		53		23		1
9		15		16		ar
10		54		26		1
11		41		6		1
12		50		18		1
13		47		13		1
14		6		5		1
15		6		7		1
16		55		26		1
17		40		3		1
18		18		17		1
19		18		19		1
20		30		29		2
21		13		12		ar
22		17		29		ar
23		17		5		ar
24		22		23		ar
25		22		21		ar
26		23		24		ar
27		29		31		ar
28		5		4		ar
29		26		56		1
30		26		25		1
31		39		3		1
32		31		59		1
33		31		32		ar
34		4		32		ar
35		4		3		1
36		16		7		ar
37		16		11		ar
38		32		33		2
39		3		2		1
40		7		8		ar
41		21		19		1
42		21		28		ar
43		19		20		2
44		12		11		ar
45		12		46		1
46		24		25		1
47		24		27		ar
48		11		10		ar
49		37		2		1
50		2		38		1
51		2		1		1
52		8		43		1
53		8		9		ar
54		28		27		ar
55		28		58		1
56		27		57		1
57		10		9		ar
58		10		45		1
59		34		1		1
60		1		35		1
61		1		36		1
62		9		44		1

