@<TRIPOS>MOLECULE
HYP2005-MC-1233-4-23
 55 58 0 0 0
SMALL
MULLIKEN_CHARGES
****
Gaussian 16 #p B3LYP/6-31G* opt
@<TRIPOS>ATOM
1		C		4.6512		-1.2782		-0.8221		C.3		1		UNL1		-0.4548
2		C		3.2594		-1.6119		-1.3958		C.3		1		UNL1		-0.1434
3		C		3.3178		-2.8230		-2.3509		C.3		1		UNL1		-0.4562
4		C		2.2158		-1.8105		-0.3029		C.ar		1		UNL1		0.0069
5		C		1.1176		-1.0110		-0.1475		C.ar		1		UNL1		0.3386
6		C		0.8695		0.2106		-1.0306		C.3		1		UNL1		-0.4605
7		C		1.8875		1.3516		-1.0190		C.ar		1		UNL1		0.1340
8		C		2.3523		1.8088		-2.2386		C.ar		1		UNL1		-0.2060
9		C		3.2268		2.9138		-2.3460		C.ar		1		UNL1		-0.1289
10		C		3.6384		3.5741		-1.2148		C.ar		1		UNL1		-0.1907
11		C		3.1865		3.1570		0.0648		C.ar		1		UNL1		0.1430
12		C		3.5936		3.8447		1.2396		C.ar		1		UNL1		-0.1943
13		C		3.1494		3.4578		2.4824		C.ar		1		UNL1		-0.1311
14		C		2.2741		2.3541		2.6001		C.ar		1		UNL1		-0.1420
15		C		1.8634		1.6630		1.4812		C.ar		1		UNL1		-0.1990
16		C		2.2974		2.0320		0.1769		C.ar		1		UNL1		0.0749
17		N		0.1484		-1.2800		0.8414		N.ar		1		UNL1		-0.5501
18		C		-1.1356		-0.5913		0.9268		C.3		1		UNL1		-0.3002
19		C		-2.0837		-0.9529		-0.2257		C.2		1		UNL1		0.4208
20		O		-1.7067		-1.6758		-1.1329		O.2		1		UNL1		-0.4568
21		C		-3.4641		-0.3848		-0.2000		C.ar		1		UNL1		0.0813
22		C		-4.3141		-0.6726		-1.2802		C.ar		1		UNL1		-0.1506
23		C		-5.6103		-0.1742		-1.3208		C.ar		1		UNL1		-0.1317
24		C		-6.0632		0.6226		-0.2660		C.ar		1		UNL1		-0.0581
25		CL		-7.6960		1.2574		-0.3079		Cl		1		UNL1		0.0016
26		C		-5.2412		0.9221		0.8208		C.ar		1		UNL1		-0.1335
27		C		-3.9439		0.4157		0.8483		C.ar		1		UNL1		-0.1772
28		C		0.2570		-2.3711		1.7181		C.ar		1		UNL1		0.7920
29		O		-0.5903		-2.6435		2.5581		O.2		1		UNL1		-0.5249
30		N		1.4076		-3.1019		1.5674		N.ar		1		UNL1		-0.6969
31		C		2.4121		-2.9439		0.6041		C.ar		1		UNL1		0.6056
32		O		3.3516		-3.7306		0.5969		O.2		1		UNL1		-0.5129
33		H		5.0323		-2.1058		-0.2191		H		1		UNL1		0.1791
34		H		5.3572		-1.0917		-1.6401		H		1		UNL1		0.1348
35		H		4.6134		-0.3785		-0.1981		H		1		UNL1		0.1452
36		H		2.9534		-0.7529		-1.9950		H		1		UNL1		0.1303
37		H		4.0159		-2.6147		-3.1707		H		1		UNL1		0.1353
38		H		3.6571		-3.7201		-1.8285		H		1		UNL1		0.1833
39		H		2.3341		-3.0286		-2.7895		H		1		UNL1		0.1380
40		H		-0.1075		0.6396		-0.8063		H		1		UNL1		0.1684
41		H		0.7811		-0.1504		-2.0600		H		1		UNL1		0.1946
42		H		2.0357		1.3036		-3.1482		H		1		UNL1		0.1310
43		H		3.5680		3.2321		-3.3270		H		1		UNL1		0.1355
44		H		4.3110		4.4257		-1.2810		H		1		UNL1		0.1342
45		H		4.2678		4.6914		1.1347		H		1		UNL1		0.1340
46		H		3.4691		3.9939		3.3716		H		1		UNL1		0.1349
47		H		1.9267		2.0440		3.5820		H		1		UNL1		0.1345
48		H		1.2089		0.8098		1.6076		H		1		UNL1		0.1428
49		H		-1.5804		-0.9173		1.8701		H		1		UNL1		0.2373
50		H		-1.0024		0.4932		0.9895		H		1		UNL1		0.1879
51		H		-3.9352		-1.2956		-2.0837		H		1		UNL1		0.1776
52		H		-6.2673		-0.3963		-2.1548		H		1		UNL1		0.1678
53		H		-5.6138		1.5390		1.6312		H		1		UNL1		0.1667
54		H		-3.3161		0.6497		1.7021		H		1		UNL1		0.1542
55		H		1.5121		-3.8901		2.1963		H		1		UNL1		0.3536
@<TRIPOS>BOND
1		43		9		1
2		37		3		1
3		42		8		1
4		39		3		1
5		3		38		1
6		3		2		1
7		9		8		ar
8		9		10		ar
9		8		7		ar
10		52		23		1
11		51		22		1
12		41		6		1
13		36		2		1
14		34		1		1
15		2		1		1
16		2		4		1
17		23		22		ar
18		23		24		ar
19		44		10		1
20		22		21		ar
21		10		11		ar
22		20		19		2
23		6		7		1
24		6		40		1
25		6		5		1
26		7		16		ar
27		1		33		1
28		1		35		1
29		25		24		1
30		4		5		ar
31		4		31		ar
32		24		26		ar
33		19		21		1
34		19		18		1
35		21		27		ar
36		5		17		ar
37		11		16		ar
38		11		12		ar
39		16		15		ar
40		32		31		2
41		31		30		ar
42		26		27		ar
43		26		53		1
44		17		18		1
45		17		28		ar
46		27		54		1
47		18		50		1
48		18		49		1
49		45		12		1
50		12		13		ar
51		15		48		1
52		15		14		ar
53		30		28		ar
54		30		55		1
55		28		29		2
56		13		14		ar
57		13		46		1
58		14		47		1

