@<TRIPOS>MOLECULE
HYP2005-MC-1233-4-10
 52 55 0 0 0
SMALL
MULLIKEN_CHARGES
****
Gaussian 16 #p B3LYP/6-31G* opt
@<TRIPOS>ATOM
1		C		-5.0187		-0.4765		-1.7702		C.3		1		UNL1		-0.4448
2		C		-4.1523		-0.7840		-0.5357		C.3		1		UNL1		-0.3352
3		C		-3.1933		0.3358		-0.1869		C.ar		1		UNL1		-0.0347
4		C		-1.9039		0.4576		-0.6303		C.ar		1		UNL1		0.3739
5		C		-1.3090		-0.5457		-1.6116		C.3		1		UNL1		-0.4625
6		C		-0.0480		-1.3462		-1.2785		C.ar		1		UNL1		0.1188
7		C		0.9864		-1.3258		-2.1969		C.ar		1		UNL1		-0.2190
8		C		2.1527		-2.1082		-2.0375		C.ar		1		UNL1		-0.1263
9		C		2.2785		-2.9310		-0.9458		C.ar		1		UNL1		-0.1891
10		C		1.2440		-3.0041		0.0240		C.ar		1		UNL1		0.1443
11		C		1.3581		-3.8679		1.1459		C.ar		1		UNL1		-0.1956
12		C		0.3537		-3.9540		2.0814		C.ar		1		UNL1		-0.1289
13		C		-0.8119		-3.1682		1.9333		C.ar		1		UNL1		-0.1403
14		C		-0.9527		-2.3173		0.8594		C.ar		1		UNL1		-0.1800
15		C		0.0598		-2.2041		-0.1325		C.ar		1		UNL1		0.0855
16		N		-1.1338		1.5778		-0.2974		N.ar		1		UNL1		-0.5508
17		C		0.2664		1.7492		-0.6659		C.3		1		UNL1		-0.2705
18		C		1.2144		1.2686		0.4490		C.2		1		UNL1		0.4372
19		O		0.7623		0.7536		1.4551		O.2		1		UNL1		-0.4558
20		C		2.6829		1.4565		0.2494		C.ar		1		UNL1		0.0873
21		C		3.2248		2.0835		-0.8832		C.ar		1		UNL1		-0.1808
22		C		4.6052		2.2317		-1.0132		C.ar		1		UNL1		-0.1349
23		C		5.4558		1.7545		-0.0144		C.ar		1		UNL1		-0.1175
24		C		4.9242		1.1285		1.1173		C.ar		1		UNL1		-0.1336
25		C		3.5473		0.9808		1.2483		C.ar		1		UNL1		-0.1512
26		C		-1.6060		2.5958		0.5421		C.ar		1		UNL1		0.7988
27		O		-0.9285		3.5645		0.8488		O.2		1		UNL1		-0.5229
28		N		-2.9043		2.4297		0.9668		N.ar		1		UNL1		-0.7038
29		C		-3.7700		1.3751		0.6700		C.ar		1		UNL1		0.6092
30		O		-4.9116		1.3754		1.1152		O.2		1		UNL1		-0.5185
31		H		-5.5912		0.4428		-1.6124		H		1		UNL1		0.1693
32		H		-5.7290		-1.2902		-1.9563		H		1		UNL1		0.1472
33		H		-4.4073		-0.3473		-2.6714		H		1		UNL1		0.1356
34		H		-3.6264		-1.7338		-0.6758		H		1		UNL1		0.1402
35		H		-4.8148		-0.9176		0.3249		H		1		UNL1		0.1788
36		H		-2.1034		-1.2537		-1.8563		H		1		UNL1		0.1916
37		H		-1.1147		-0.0048		-2.5473		H		1		UNL1		0.1701
38		H		0.8993		-0.6966		-3.0809		H		1		UNL1		0.1207
39		H		2.9402		-2.0541		-2.7839		H		1		UNL1		0.1327
40		H		3.1677		-3.5418		-0.8099		H		1		UNL1		0.1328
41		H		2.2610		-4.4653		1.2489		H		1		UNL1		0.1305
42		H		0.4537		-4.6199		2.9341		H		1		UNL1		0.1331
43		H		-1.6015		-3.2299		2.6770		H		1		UNL1		0.1362
44		H		-1.8440		-1.7087		0.7828		H		1		UNL1		0.1499
45		H		0.4818		1.2186		-1.5913		H		1		UNL1		0.1827
46		H		0.4310		2.8157		-0.8347		H		1		UNL1		0.2132
47		H		2.5778		2.4662		-1.6667		H		1		UNL1		0.1359
48		H		5.0160		2.7218		-1.8915		H		1		UNL1		0.1379
49		H		6.5314		1.8719		-0.1162		H		1		UNL1		0.1397
50		H		5.5857		0.7582		1.8956		H		1		UNL1		0.1407
51		H		3.1113		0.4995		2.1175		H		1		UNL1		0.1697
52		H		-3.2656		3.1609		1.5686		H		1		UNL1		0.3531
@<TRIPOS>BOND
1		38		7		1
2		39		8		1
3		33		1		1
4		37		5		1
5		7		8		ar
6		7		6		ar
7		8		9		ar
8		32		1		1
9		48		22		1
10		36		5		1
11		1		31		1
12		1		2		1
13		47		21		1
14		5		6		1
15		5		4		1
16		45		17		1
17		6		15		ar
18		22		21		ar
19		22		23		ar
20		9		40		1
21		9		10		ar
22		21		20		ar
23		46		17		1
24		34		2		1
25		17		16		1
26		17		18		1
27		4		16		ar
28		4		3		ar
29		2		3		1
30		2		35		1
31		16		26		ar
32		3		29		ar
33		15		10		ar
34		15		14		ar
35		49		23		1
36		23		24		ar
37		10		11		ar
38		20		18		1
39		20		25		ar
40		18		19		2
41		26		27		2
42		26		28		ar
43		29		28		ar
44		29		30		2
45		44		14		1
46		14		13		ar
47		28		52		1
48		24		25		ar
49		24		50		1
50		11		41		1
51		11		12		ar
52		25		51		1
53		13		12		ar
54		13		43		1
55		12		42		1

