@<TRIPOS>MOLECULE
HYP2005-MC-1233-4-5
 49 52 0 0 0
SMALL
MULLIKEN_CHARGES
****
Gaussian 16 #p B3LYP/6-31G* opt
@<TRIPOS>ATOM
1		C		3.5401		-1.6938		0.6371		C.3		1		UNL1		-0.5331
2		C		2.1150		-2.0724		0.3112		C.ar		1		UNL1		-0.0049
3		C		0.9941		-1.3574		0.6227		C.ar		1		UNL1		0.3615
4		C		0.9739		0.0038		1.3175		C.3		1		UNL1		-0.4800
5		C		2.1753		0.9268		1.2161		C.ar		1		UNL1		0.1304
6		C		2.8726		1.2554		2.3616		C.ar		1		UNL1		-0.2087
7		C		3.9631		2.1556		2.3371		C.ar		1		UNL1		-0.1307
8		C		4.3481		2.7350		1.1525		C.ar		1		UNL1		-0.1886
9		C		3.6495		2.4504		-0.0515		C.ar		1		UNL1		0.1419
10		C		4.0228		3.0575		-1.2802		C.ar		1		UNL1		-0.1970
11		C		3.3327		2.7911		-2.4405		C.ar		1		UNL1		-0.1290
12		C		2.2313		1.9045		-2.4179		C.ar		1		UNL1		-0.1457
13		C		1.8431		1.2936		-1.2450		C.ar		1		UNL1		-0.2065
14		C		2.5385		1.5403		-0.0281		C.ar		1		UNL1		0.0741
15		N		-0.2875		-1.8785		0.3474		N.ar		1		UNL1		-0.5507
16		C		-1.5348		-1.2454		0.7617		C.3		1		UNL1		-0.2763
17		C		-2.0788		-0.2508		-0.2776		C.2		1		UNL1		0.4264
18		O		-1.3886		0.0849		-1.2271		O.2		1		UNL1		-0.4572
19		C		-3.4477		0.3007		-0.0753		C.ar		1		UNL1		0.0830
20		C		-3.9217		1.2430		-1.0053		C.ar		1		UNL1		-0.1540
21		C		-5.1857		1.8023		-0.8726		C.ar		1		UNL1		-0.1983
22		C		-5.9763		1.4102		0.2055		C.ar		1		UNL1		0.3970
23		F		-7.2005		1.9473		0.3422		F		1		UNL1		-0.2842
24		C		-5.5425		0.4812		1.1459		C.ar		1		UNL1		-0.2021
25		C		-4.2735		-0.0723		0.9986		C.ar		1		UNL1		-0.1802
26		C		-0.4870		-3.0533		-0.3854		C.ar		1		UNL1		0.7923
27		O		-1.5990		-3.4746		-0.6728		O.2		1		UNL1		-0.5285
28		N		0.6703		-3.7047		-0.7344		N.ar		1		UNL1		-0.6992
29		C		1.9827		-3.3413		-0.4181		C.ar		1		UNL1		0.5975
30		O		2.9081		-4.0639		-0.7639		O.2		1		UNL1		-0.5112
31		H		3.6500		-1.3171		1.6553		H		1		UNL1		0.1555
32		H		3.9328		-0.9304		-0.0432		H		1		UNL1		0.1782
33		H		4.1577		-2.5866		0.5203		H		1		UNL1		0.1897
34		H		0.7607		-0.1625		2.3830		H		1		UNL1		0.1735
35		H		0.1181		0.5586		0.9222		H		1		UNL1		0.1834
36		H		2.5848		0.8034		3.3083		H		1		UNL1		0.1241
37		H		4.4914		2.3819		3.2591		H		1		UNL1		0.1323
38		H		5.1872		3.4259		1.1198		H		1		UNL1		0.1321
39		H		4.8677		3.7422		-1.2851		H		1		UNL1		0.1306
40		H		3.6287		3.2627		-3.3736		H		1		UNL1		0.1319
41		H		1.6829		1.7030		-3.3340		H		1		UNL1		0.1370
42		H		0.9888		0.6253		-1.2579		H		1		UNL1		0.1800
43		H		-2.2620		-2.0489		0.8929		H		1		UNL1		0.2220
44		H		-1.4106		-0.7481		1.7265		H		1		UNL1		0.1892
45		H		-3.2750		1.5217		-1.8304		H		1		UNL1		0.1781
46		H		-5.5682		2.5294		-1.5811		H		1		UNL1		0.1614
47		H		-6.1951		0.2041		1.9668		H		1		UNL1		0.1595
48		H		-3.9390		-0.8020		1.7288		H		1		UNL1		0.1503
49		H		0.5516		-4.5643		-1.2579		H		1		UNL1		0.3534
@<TRIPOS>BOND
1		40		11		1
2		41		12		1
3		11		12		ar
4		11		10		ar
5		12		13		ar
6		45		20		1
7		46		21		1
8		39		10		1
9		10		9		ar
10		49		28		1
11		42		13		1
12		13		14		ar
13		18		17		2
14		20		21		ar
15		20		19		ar
16		21		22		ar
17		30		29		2
18		28		29		ar
19		28		26		ar
20		27		26		2
21		29		2		ar
22		26		15		ar
23		17		19		1
24		17		16		1
25		19		25		ar
26		9		14		ar
27		9		8		ar
28		32		1		1
29		14		5		ar
30		22		23		1
31		22		24		ar
32		2		3		ar
33		2		1		1
34		15		3		ar
35		15		16		1
36		33		1		1
37		3		4		1
38		1		31		1
39		16		43		1
40		16		44		1
41		35		4		1
42		25		24		ar
43		25		48		1
44		38		8		1
45		24		47		1
46		8		7		ar
47		5		4		1
48		5		6		ar
49		4		34		1
50		7		6		ar
51		7		37		1
52		6		36		1

