@<TRIPOS>MOLECULE
HYP2005-MC-1233-4-1
 49 52 0 0 0
SMALL
MULLIKEN_CHARGES
****
Gaussian 16 #p B3LYP/6-31G* opt
@<TRIPOS>ATOM
1		C		-2.3747		2.0649		-1.8573		C.3		1		UNL1		-0.5309
2		C		-1.3199		2.1609		-0.7855		C.ar		1		UNL1		0.0038
3		C		-0.4666		1.1509		-0.4513		C.ar		1		UNL1		0.3642
4		C		-0.5512		-0.2101		-1.1310		C.3		1		UNL1		-0.4588
5		C		-1.8789		-0.9607		-1.0611		C.ar		1		UNL1		0.1330
6		C		-2.4610		-1.3716		-2.2449		C.ar		1		UNL1		-0.2097
7		C		-3.6491		-2.1372		-2.2722		C.ar		1		UNL1		-0.1287
8		C		-4.2596		-2.4986		-1.0965		C.ar		1		UNL1		-0.1910
9		C		-3.7017		-2.1129		0.1512		C.ar		1		UNL1		0.1424
10		C		-4.3159		-2.4935		1.3744		C.ar		1		UNL1		-0.1945
11		C		-3.7728		-2.1346		2.5862		C.ar		1		UNL1		-0.1311
12		C		-2.5834		-1.3715		2.6224		C.ar		1		UNL1		-0.1411
13		C		-1.9648		-0.9833		1.4541		C.ar		1		UNL1		-0.1969
14		C		-2.4935		-1.3346		0.1807		C.ar		1		UNL1		0.0807
15		N		0.5265		1.3293		0.5299		N.ar		1		UNL1		-0.5526
16		C		1.5920		0.3647		0.7814		C.3		1		UNL1		-0.2982
17		C		2.5953		0.2673		-0.3781		C.2		1		UNL1		0.4179
18		O		2.4087		0.8957		-1.4070		O.2		1		UNL1		-0.4590
19		C		3.7816		-0.6223		-0.2031		C.ar		1		UNL1		0.0809
20		C		4.0402		-1.3224		0.9863		C.ar		1		UNL1		-0.1809
21		C		5.1644		-2.1406		1.0898		C.ar		1		UNL1		-0.1336
22		C		6.0389		-2.2663		0.0088		C.ar		1		UNL1		-0.1159
23		C		5.7900		-1.5710		-1.1786		C.ar		1		UNL1		-0.1327
24		C		4.6691		-0.7544		-1.2839		C.ar		1		UNL1		-0.1534
25		C		0.6852		2.5443		1.2164		C.ar		1		UNL1		0.7898
26		O		1.5610		2.7319		2.0501		O.2		1		UNL1		-0.5248
27		N		-0.2370		3.5075		0.8876		N.ar		1		UNL1		-0.6971
28		C		-1.2331		3.4472		-0.0953		C.ar		1		UNL1		0.5981
29		O		-1.9402		4.4242		-0.3032		O.2		1		UNL1		-0.5128
30		H		-2.6830		3.0766		-2.1293		H		1		UNL1		0.1909
31		H		-2.0052		1.5566		-2.7536		H		1		UNL1		0.1478
32		H		-3.2658		1.5247		-1.5178		H		1		UNL1		0.1756
33		H		-0.3054		-0.0542		-2.1873		H		1		UNL1		0.1942
34		H		0.2303		-0.8723		-0.7548		H		1		UNL1		0.1670
35		H		-1.9943		-1.0968		-3.1877		H		1		UNL1		0.1289
36		H		-4.0723		-2.4335		-3.2279		H		1		UNL1		0.1345
37		H		-5.1743		-3.0863		-1.1021		H		1		UNL1		0.1333
38		H		-5.2305		-3.0803		1.3329		H		1		UNL1		0.1331
39		H		-4.2538		-2.4331		3.5135		H		1		UNL1		0.1340
40		H		-2.1563		-1.0843		3.5795		H		1		UNL1		0.1337
41		H		-1.0649		-0.3833		1.5144		H		1		UNL1		0.1394
42		H		2.1082		0.7230		1.6750		H		1		UNL1		0.2368
43		H		1.1849		-0.6238		1.0171		H		1		UNL1		0.1853
44		H		3.3750		-1.2308		1.8393		H		1		UNL1		0.1447
45		H		5.3586		-2.6770		2.0141		H		1		UNL1		0.1434
46		H		6.9149		-2.9039		0.0917		H		1		UNL1		0.1442
47		H		6.4716		-1.6672		-2.0190		H		1		UNL1		0.1446
48		H		4.4566		-0.2039		-2.1944		H		1		UNL1		0.1684
49		H		-0.1379		4.3900		1.3761		H		1		UNL1		0.3534
@<TRIPOS>BOND
1		36		7		1
2		35		6		1
3		31		1		1
4		7		6		ar
5		7		8		ar
6		6		5		ar
7		48		24		1
8		33		4		1
9		30		1		1
10		47		23		1
11		1		32		1
12		1		2		1
13		18		17		2
14		24		23		ar
15		24		19		ar
16		23		22		ar
17		4		5		1
18		4		34		1
19		4		3		1
20		37		8		1
21		8		9		ar
22		5		14		ar
23		2		3		ar
24		2		28		ar
25		3		15		ar
26		17		19		1
27		17		16		1
28		29		28		2
29		19		20		ar
30		28		27		ar
31		22		46		1
32		22		21		ar
33		9		14		ar
34		9		10		ar
35		14		13		ar
36		15		16		1
37		15		25		ar
38		16		43		1
39		16		42		1
40		27		25		ar
41		27		49		1
42		20		21		ar
43		20		44		1
44		21		45		1
45		25		26		2
46		38		10		1
47		10		11		ar
48		13		41		1
49		13		12		ar
50		11		12		ar
51		11		39		1
52		12		40		1

