@<TRIPOS>MOLECULE
HYP2005-MC-1233-4-28
 55 57 0 0 0
SMALL
MULLIKEN_CHARGES
****
Gaussian 16 #p B3LYP/6-31G* opt
@<TRIPOS>ATOM
1		C		-4.4174		0.0882		-2.1340		C.3		1		UNL1		-0.4546
2		C		-4.2425		-1.2057		-1.3530		C.3		1		UNL1		0.1218
3		C		-5.5066		-1.6659		-0.6362		C.3		1		UNL1		-0.4601
4		O		-3.1985		-0.9352		-0.3610		O.3		1		UNL1		-0.4631
5		C		-2.4843		-1.9802		0.0826		C.2		1		UNL1		0.6448
6		O		-2.6105		-3.1289		-0.2832		O.2		1		UNL1		-0.4811
7		C		-1.4845		-1.5772		1.1629		C.3		1		UNL1		-0.2902
8		N		-1.0775		-0.1720		1.1584		N.ar		1		UNL1		-0.5498
9		C		-0.3160		0.4088		0.1237		C.ar		1		UNL1		0.3244
10		C		0.2365		-0.5504		-0.9308		C.3		1		UNL1		-0.4737
11		C		1.7514		-0.6477		-1.1213		C.ar		1		UNL1		0.1371
12		C		2.2426		-0.5406		-2.4095		C.ar		1		UNL1		-0.2045
13		C		3.6150		-0.6969		-2.7082		C.ar		1		UNL1		-0.1291
14		C		4.5081		-0.9672		-1.7012		C.ar		1		UNL1		-0.1899
15		C		4.0611		-1.0980		-0.3601		C.ar		1		UNL1		0.1426
16		C		4.9762		-1.3942		0.6855		C.ar		1		UNL1		-0.1941
17		C		4.5509		-1.5391		1.9853		C.ar		1		UNL1		-0.1306
18		C		3.1796		-1.3891		2.2937		C.ar		1		UNL1		-0.1412
19		C		2.2668		-1.0972		1.3040		C.ar		1		UNL1		-0.1961
20		C		2.6647		-0.9406		-0.0533		C.ar		1		UNL1		0.0763
21		C		-0.1096		1.7590		0.0628		C.ar		1		UNL1		0.0075
22		C		0.6438		2.4505		-1.0671		C.3		1		UNL1		-0.1438
23		C		-0.2636		3.4331		-1.8374		C.3		1		UNL1		-0.4553
24		C		1.9310		3.1412		-0.5733		C.3		1		UNL1		-0.4550
25		C		-0.6497		2.6143		1.1238		C.ar		1		UNL1		0.6049
26		O		-0.5329		3.8313		1.2083		O.2		1		UNL1		-0.5125
27		N		-1.3540		1.9316		2.1224		N.ar		1		UNL1		-0.6991
28		C		-1.6423		0.5909		2.1922		C.ar		1		UNL1		0.7919
29		O		-2.3226		0.1116		3.0877		O.2		1		UNL1		-0.5198
30		H		-5.1689		-0.0488		-2.9189		H		1		UNL1		0.1548
31		H		-3.4776		0.3913		-2.6066		H		1		UNL1		0.1563
32		H		-4.7499		0.8982		-1.4760		H		1		UNL1		0.1637
33		H		-3.8701		-2.0053		-1.9998		H		1		UNL1		0.1646
34		H		-5.3251		-2.5959		-0.0908		H		1		UNL1		0.1764
35		H		-6.3037		-1.8476		-1.3657		H		1		UNL1		0.1527
36		H		-5.8506		-0.9008		0.0683		H		1		UNL1		0.1605
37		H		-0.6298		-2.2535		1.1091		H		1		UNL1		0.1975
38		H		-1.9700		-1.7376		2.1293		H		1		UNL1		0.2464
39		H		-0.1959		-0.2554		-1.8930		H		1		UNL1		0.1831
40		H		-0.1379		-1.5599		-0.7542		H		1		UNL1		0.1901
41		H		1.5526		-0.3300		-3.2235		H		1		UNL1		0.1279
42		H		3.9528		-0.6000		-3.7361		H		1		UNL1		0.1354
43		H		5.5671		-1.0894		-1.9145		H		1		UNL1		0.1346
44		H		6.0281		-1.5077		0.4342		H		1		UNL1		0.1341
45		H		5.2623		-1.7672		2.7740		H		1		UNL1		0.1355
46		H		2.8424		-1.5013		3.3205		H		1		UNL1		0.1366
47		H		1.2266		-0.9730		1.5765		H		1		UNL1		0.1431
48		H		0.9540		1.6830		-1.7780		H		1		UNL1		0.1312
49		H		0.2832		3.8516		-2.6909		H		1		UNL1		0.1374
50		H		-1.1563		2.9272		-2.2253		H		1		UNL1		0.1293
51		H		-0.5857		4.2565		-1.1963		H		1		UNL1		0.1848
52		H		2.4692		3.5785		-1.4228		H		1		UNL1		0.1357
53		H		1.6978		3.9390		0.1357		H		1		UNL1		0.1795
54		H		2.5987		2.4226		-0.0855		H		1		UNL1		0.1473
55		H		-1.7440		2.5026		2.8638		H		1		UNL1		0.3537
@<TRIPOS>BOND
1		42		13		1
2		41		12		1
3		30		1		1
4		13		12		ar
5		13		14		ar
6		49		23		1
7		31		1		1
8		12		11		ar
9		50		23		1
10		1		32		1
11		1		2		1
12		33		2		1
13		43		14		1
14		39		10		1
15		23		51		1
16		23		22		1
17		48		22		1
18		14		15		ar
19		52		24		1
20		35		3		1
21		2		3		1
22		2		4		1
23		11		10		1
24		11		20		ar
25		22		24		1
26		22		21		1
27		10		40		1
28		10		9		1
29		3		34		1
30		3		36		1
31		24		54		1
32		24		53		1
33		4		5		1
34		15		20		ar
35		15		16		ar
36		6		5		2
37		20		19		ar
38		21		9		ar
39		21		25		ar
40		5		7		1
41		9		8		ar
42		44		16		1
43		16		17		ar
44		37		7		1
45		25		26		2
46		25		27		ar
47		8		7		1
48		8		28		ar
49		7		38		1
50		19		47		1
51		19		18		ar
52		17		18		ar
53		17		45		1
54		27		28		ar
55		27		55		1
56		28		29		2
57		18		46		1

