@<TRIPOS>MOLECULE
HYP2005-MC-1233-4-43
 53 56 0 0 0
SMALL
MULLIKEN_CHARGES
****
Gaussian 16 #p B3LYP/6-31G* opt
@<TRIPOS>ATOM
1		C		-6.3001		-1.0017		0.2667		C.3		1		UNL1		-0.4581
2		C		-5.4544		0.1138		-0.3181		C.3		1		UNL1		-0.0411
3		O		-4.1617		0.0548		0.3296		O.3		1		UNL1		-0.5345
4		C		-3.2421		0.9946		-0.0447		C.ar		1		UNL1		0.2109
5		C		-2.0254		0.5991		-0.5213		C.ar		1		UNL1		0.3368
6		C		-1.7493		-0.8603		-0.7911		C.3		1		UNL1		-0.4312
7		C		-0.8630		-1.5970		0.2090		C.ar		1		UNL1		0.0979
8		C		-0.6343		-1.0876		1.4706		C.ar		1		UNL1		-0.1907
9		C		0.1643		-1.7780		2.4137		C.ar		1		UNL1		-0.1362
10		C		0.7299		-2.9863		2.0900		C.ar		1		UNL1		-0.1895
11		C		0.5136		-3.5623		0.8093		C.ar		1		UNL1		0.1362
12		C		1.0828		-4.8159		0.4608		C.ar		1		UNL1		-0.1938
13		C		0.8613		-5.3806		-0.7746		C.ar		1		UNL1		-0.1332
14		C		0.0510		-4.7088		-1.7180		C.ar		1		UNL1		-0.1338
15		C		-0.5127		-3.4883		-1.4132		C.ar		1		UNL1		-0.2038
16		C		-0.2994		-2.8683		-0.1500		C.ar		1		UNL1		0.0755
17		N		-1.0439		1.5462		-0.8346		N.ar		1		UNL1		-0.5503
18		C		0.3434		1.2099		-1.1248		C.3		1		UNL1		-0.2664
19		C		1.2552		1.4826		0.0971		C.2		1		UNL1		0.4520
20		O		0.7632		1.8093		1.1594		O.2		1		UNL1		-0.4524
21		C		2.7227		1.3094		-0.1014		C.ar		1		UNL1		0.0167
22		C		3.2641		0.8908		-1.3326		C.ar		1		UNL1		-0.1859
23		C		4.6292		0.7180		-1.5265		C.ar		1		UNL1		-0.2003
24		C		5.4822		0.9735		-0.4568		C.ar		1		UNL1		0.4071
25		F		6.8044		0.8143		-0.6225		F		1		UNL1		-0.2829
26		C		5.0111		1.3892		0.7812		C.ar		1		UNL1		-0.2793
27		C		3.6400		1.5497		0.9416		C.ar		1		UNL1		0.3654
28		F		3.2172		1.9488		2.1430		F		1		UNL1		-0.2554
29		C		-1.2737		2.9218		-0.7392		C.ar		1		UNL1		0.8021
30		O		-0.4338		3.7524		-1.0484		O.2		1		UNL1		-0.5247
31		N		-2.5332		3.2622		-0.2857		N.ar		1		UNL1		-0.7149
32		C		-3.5569		2.4125		0.1467		C.ar		1		UNL1		0.6213
33		O		-4.5969		2.8674		0.6030		O.2		1		UNL1		-0.5087
34		H		-7.2927		-1.0006		-0.1969		H		1		UNL1		0.1487
35		H		-6.4217		-0.8627		1.3454		H		1		UNL1		0.1690
36		H		-5.8376		-1.9794		0.0947		H		1		UNL1		0.1537
37		H		-5.3150		-0.0184		-1.4010		H		1		UNL1		0.1227
38		H		-5.9025		1.0933		-0.1374		H		1		UNL1		0.1842
39		H		-2.7241		-1.3565		-0.8266		H		1		UNL1		0.2023
40		H		-1.3257		-0.9428		-1.7997		H		1		UNL1		0.1606
41		H		-1.0573		-0.1283		1.7487		H		1		UNL1		0.1598
42		H		0.3275		-1.3364		3.3924		H		1		UNL1		0.1423
43		H		1.3474		-3.5214		2.8074		H		1		UNL1		0.1316
44		H		1.6987		-5.3269		1.1972		H		1		UNL1		0.1330
45		H		1.3019		-6.3416		-1.0255		H		1		UNL1		0.1325
46		H		-0.1318		-5.1602		-2.6895		H		1		UNL1		0.1308
47		H		-1.1426		-3.0042		-2.1524		H		1		UNL1		0.1282
48		H		0.4195		0.1592		-1.4046		H		1		UNL1		0.1931
49		H		0.6727		1.8211		-1.9682		H		1		UNL1		0.2065
50		H		2.6025		0.6933		-2.1683		H		1		UNL1		0.1559
51		H		5.0364		0.3951		-2.4778		H		1		UNL1		0.1601
52		H		5.6869		1.5856		1.6049		H		1		UNL1		0.1734
53		H		-2.7006		4.2565		-0.1788		H		1		UNL1		0.3567
@<TRIPOS>BOND
1		46		14		1
2		51		23		1
3		50		22		1
4		47		15		1
5		49		18		1
6		40		6		1
7		14		15		ar
8		14		13		ar
9		23		22		ar
10		23		24		ar
11		15		16		ar
12		48		18		1
13		37		2		1
14		22		21		ar
15		18		17		1
16		18		19		1
17		30		29		2
18		45		13		1
19		17		29		ar
20		17		5		ar
21		39		6		1
22		6		5		1
23		6		7		1
24		13		12		ar
25		29		31		ar
26		25		24		1
27		5		4		ar
28		24		26		ar
29		2		38		1
30		2		1		1
31		2		3		1
32		31		53		1
33		31		32		ar
34		34		1		1
35		16		7		ar
36		16		11		ar
37		21		19		1
38		21		27		ar
39		4		32		ar
40		4		3		1
41		36		1		1
42		19		20		2
43		32		33		2
44		7		8		ar
45		1		35		1
46		12		11		ar
47		12		44		1
48		26		27		ar
49		26		52		1
50		11		10		ar
51		27		28		1
52		8		41		1
53		8		9		ar
54		10		9		ar
55		10		43		1
56		9		42		1

