@<TRIPOS>MOLECULE
HYP2005-MC-1233-4-34
 52 54 0 0 0
SMALL
MULLIKEN_CHARGES
****
Gaussian 16 #p B3LYP/6-31G* opt
@<TRIPOS>ATOM
1		C		0.8281		5.4912		0.7616		C.3		1		UNL1		-0.4432
2		C		1.3132		4.2423		0.0201		C.3		1		UNL1		-0.2526
3		C		1.1846		2.9630		0.8715		C.3		1		UNL1		-0.3382
4		C		1.7149		1.7219		0.1899		C.ar		1		UNL1		-0.0189
5		C		0.9551		0.8340		-0.5156		C.ar		1		UNL1		0.3367
6		C		-0.5220		1.0683		-0.7545		C.3		1		UNL1		-0.4649
7		C		-1.4952		0.2987		0.1335		C.ar		1		UNL1		0.1042
8		C		-1.0606		-0.3981		1.2424		C.ar		1		UNL1		-0.1945
9		C		-1.9662		-1.0925		2.0806		C.ar		1		UNL1		-0.1404
10		C		-3.3108		-1.0853		1.8043		C.ar		1		UNL1		-0.1850
11		C		-3.8110		-0.3761		0.6791		C.ar		1		UNL1		0.1362
12		C		-5.1993		-0.3513		0.3820		C.ar		1		UNL1		-0.1925
13		C		-5.6825		0.3455		-0.7020		C.ar		1		UNL1		-0.1314
14		C		-4.7888		1.0530		-1.5378		C.ar		1		UNL1		-0.1319
15		C		-3.4349		1.0466		-1.2791		C.ar		1		UNL1		-0.1998
16		C		-2.8980		0.3332		-0.1717		C.ar		1		UNL1		0.0793
17		N		1.5281		-0.3026		-1.1036		N.ar		1		UNL1		-0.5421
18		C		0.7676		-1.3825		-1.7326		C.3		1		UNL1		-0.2536
19		C		0.8590		-2.7377		-1.0283		C.2		1		UNL1		0.6647
20		O		0.5451		-3.7649		-1.5836		O.2		1		UNL1		-0.4774
21		O		1.2565		-2.6446		0.2505		O.3		1		UNL1		-0.4595
22		C		1.3842		-3.9037		0.9581		C.3		1		UNL1		-0.0356
23		C		1.9243		-3.5982		2.3416		C.3		1		UNL1		-0.4665
24		C		2.9053		-0.5428		-1.0807		C.ar		1		UNL1		0.7990
25		O		3.4069		-1.5148		-1.6246		O.2		1		UNL1		-0.5213
26		N		3.6403		0.4007		-0.3973		N.ar		1		UNL1		-0.7090
27		C		3.1632		1.5251		0.2856		C.ar		1		UNL1		0.6068
28		O		3.9425		2.2586		0.8807		O.2		1		UNL1		-0.5154
29		H		-0.2281		5.4028		1.0459		H		1		UNL1		0.1391
30		H		0.9319		6.3875		0.1398		H		1		UNL1		0.1455
31		H		1.4063		5.6529		1.6791		H		1		UNL1		0.1518
32		H		2.3647		4.3643		-0.2651		H		1		UNL1		0.1601
33		H		0.7475		4.1216		-0.9148		H		1		UNL1		0.1246
34		H		1.7692		3.1033		1.7874		H		1		UNL1		0.1717
35		H		0.1438		2.8219		1.1834		H		1		UNL1		0.1413
36		H		-0.7360		0.8606		-1.8100		H		1		UNL1		0.1746
37		H		-0.7099		2.1399		-0.6407		H		1		UNL1		0.1946
38		H		-0.0021		-0.4258		1.4784		H		1		UNL1		0.1486
39		H		-1.5853		-1.6305		2.9443		H		1		UNL1		0.1345
40		H		-4.0123		-1.6179		2.4418		H		1		UNL1		0.1343
41		H		-5.8785		-0.8961		1.0336		H		1		UNL1		0.1351
42		H		-6.7474		0.3559		-0.9167		H		1		UNL1		0.1357
43		H		-5.1728		1.6068		-2.3902		H		1		UNL1		0.1349
44		H		-2.7732		1.6049		-1.9334		H		1		UNL1		0.1308
45		H		1.1214		-1.5433		-2.7527		H		1		UNL1		0.2151
46		H		-0.2873		-1.1173		-1.7718		H		1		UNL1		0.2022
47		H		2.0548		-4.5525		0.3872		H		1		UNL1		0.1730
48		H		0.4014		-4.3840		0.9928		H		1		UNL1		0.1627
49		H		2.0431		-4.5298		2.9055		H		1		UNL1		0.1567
50		H		1.2418		-2.9465		2.8970		H		1		UNL1		0.1577
51		H		2.8999		-3.1060		2.2803		H		1		UNL1		0.1691
52		H		4.6407		0.2398		-0.3667		H		1		UNL1		0.3531
@<TRIPOS>BOND
1		45		18		1
2		43		14		1
3		44		15		1
4		36		6		1
5		46		18		1
6		18		17		1
7		18		19		1
8		25		24		2
9		20		19		2
10		14		15		ar
11		14		13		ar
12		15		16		ar
13		17		24		ar
14		17		5		ar
15		24		26		ar
16		19		21		1
17		42		13		1
18		33		2		1
19		6		37		1
20		6		5		1
21		6		7		1
22		13		12		ar
23		5		4		ar
24		26		52		1
25		26		27		ar
26		32		2		1
27		16		7		ar
28		16		11		ar
29		2		1		1
30		2		3		1
31		7		8		ar
32		30		1		1
33		4		27		ar
34		4		3		1
35		21		22		1
36		27		28		2
37		12		11		ar
38		12		41		1
39		47		22		1
40		11		10		ar
41		1		29		1
42		1		31		1
43		3		35		1
44		3		34		1
45		22		48		1
46		22		23		1
47		8		38		1
48		8		9		ar
49		10		9		ar
50		10		40		1
51		9		39		1
52		51		23		1
53		23		50		1
54		23		49		1

