@<TRIPOS>MOLECULE
JKJ-2018-EJMC-726-3-4h
 51 54 0 0 0
SMALL
MULLIKEN_CHARGES

@<TRIPOS>ATOM
1		C		-1.7689		-1.9747		-1.1672		C.ar		1		UNL1		-0.2718
2		C		-0.5007		-2.5515		-1.0817		C.ar		1		UNL1		0.1911
3		C		0.2530		-2.3584		0.0915		C.ar		1		UNL1		0.1710
4		C		-0.2598		-1.6136		1.1702		C.ar		1		UNL1		0.1999
5		C		-1.5279		-1.0413		1.0344		C.ar		1		UNL1		-0.2742
6		C		-2.3013		-1.2064		-0.1225		C.ar		1		UNL1		0.1274
7		C		0.0459		-3.3695		-2.2284		C.3		1		UNL1		-0.5394
8		C		0.5236		-1.4282		2.4452		C.3		1		UNL1		-0.5337
9		N		1.5336		-2.9863		0.1970		N.pl3		1		UNL1		-0.7631
10		C		2.7477		-2.3481		0.1462		C.ar		1		UNL1		0.5736
11		C		3.9492		-3.0896		0.1583		C.ar		1		UNL1		-0.2265
12		C		5.1204		-2.3528		0.1122		C.ar		1		UNL1		0.0669
13		N		5.1581		-1.0156		0.0588		N.ar		1		UNL1		-0.5067
14		C		3.9525		-0.4166		0.0527		C.ar		1		UNL1		0.6895
15		N		2.7531		-1.0075		0.0924		N.ar		1		UNL1		-0.5688
16		N		4.0340		0.9618		-0.0025		N.pl3		1		UNL1		-0.7691
17		C		3.0690		1.9655		-0.0516		C.ar		1		UNL1		0.3813
18		C		3.5375		3.2963		-0.0402		C.ar		1		UNL1		-0.2045
19		C		2.6569		4.3635		-0.0923		C.ar		1		UNL1		-0.1414
20		C		1.2706		4.1344		-0.1573		C.ar		1		UNL1		0.1300
21		C		0.8031		2.8098		-0.1704		C.ar		1		UNL1		-0.1601
22		C		1.6814		1.7348		-0.1195		C.ar		1		UNL1		-0.1685
23		C		0.3551		5.2323		-0.2109		C.1		1		UNL1		0.2263
24		N		-0.3886		6.1272		-0.2552		N.1		1		UNL1		-0.4876
25		C		-3.6479		-0.5897		-0.2379		C.ar		1		UNL1		0.0829
26		C		-4.5049		-0.5347		0.8731		C.ar		1		UNL1		-0.2489
27		C		-5.7572		0.0496		0.7427		C.ar		1		UNL1		0.3834
28		C		-6.2081		0.5895		-0.4559		C.ar		1		UNL1		-0.1941
29		C		-5.3558		0.5350		-1.5594		C.ar		1		UNL1		-0.1345
30		C		-4.0926		-0.0466		-1.4558		C.ar		1		UNL1		-0.1719
31		F		-6.5700		0.0830		1.8207		F		1		UNL1		-0.2989
32		H		-2.3615		-2.1409		-2.0627		H		1		UNL1		0.1308
33		H		-1.9165		-0.4411		1.8527		H		1		UNL1		0.1346
34		H		0.1422		-4.4334		-1.9697		H		1		UNL1		0.1518
35		H		1.0399		-3.0213		-2.5318		H		1		UNL1		0.1738
36		H		-0.6148		-3.3093		-3.0978		H		1		UNL1		0.1652
37		H		-0.1214		-1.0563		3.2467		H		1		UNL1		0.1548
38		H		1.3410		-0.7122		2.3040		H		1		UNL1		0.1855
39		H		0.9755		-2.3705		2.7736		H		1		UNL1		0.1592
40		H		1.5648		-3.9826		0.0249		H		1		UNL1		0.3318
41		H		3.9563		-4.1732		0.2078		H		1		UNL1		0.1327
42		H		6.0864		-2.8552		0.1188		H		1		UNL1		0.1486
43		H		4.9986		1.2687		-0.0079		H		1		UNL1		0.3462
44		H		4.6070		3.4866		0.0120		H		1		UNL1		0.1359
45		H		3.0347		5.3808		-0.0823		H		1		UNL1		0.1558
46		H		-0.2646		2.6209		-0.2224		H		1		UNL1		0.1595
47		H		1.3095		0.7210		-0.1346		H		1		UNL1		0.2003
48		H		-4.2202		-0.9630		1.8282		H		1		UNL1		0.1471
49		H		-7.1950		1.0367		-0.5095		H		1		UNL1		0.1486
50		H		-5.6778		0.9596		-2.5060		H		1		UNL1		0.1421
51		H		-3.4324		-0.0543		-2.3175		H		1		UNL1		0.1361
@<TRIPOS>BOND
1		36		7		1
2		35		7		1
3		50		29		1
4		51		30		1
5		7		34		1
6		7		2		1
7		32		1		1
8		29		30		ar
9		29		28		ar
10		30		25		ar
11		1		2		ar
12		1		6		ar
13		2		3		ar
14		49		28		1
15		28		27		ar
16		24		23		3
17		25		6		1
18		25		26		ar
19		46		21		1
20		23		20		1
21		21		20		ar
22		21		22		ar
23		20		19		ar
24		47		22		1
25		6		5		ar
26		22		17		ar
27		19		45		1
28		19		18		ar
29		17		18		ar
30		17		16		1
31		18		44		1
32		43		16		1
33		16		14		1
34		40		9		1
35		14		13		ar
36		14		15		ar
37		13		12		ar
38		3		9		1
39		3		4		ar
40		15		10		ar
41		12		42		1
42		12		11		ar
43		10		11		ar
44		10		9		1
45		11		41		1
46		27		26		ar
47		27		31		1
48		26		48		1
49		5		4		ar
50		5		33		1
51		4		8		1
52		38		8		1
53		8		39		1
54		8		37		1

