@<TRIPOS>MOLECULE
JKJ-2019-EJMC-11-4r
 45 48 0 0 0
SMALL
MULLIKEN_CHARGES
****
Gaussian 16 #p B3LYP/6-31G* opt
@<TRIPOS>ATOM
1		C		7.3020		-1.7759		-0.3097		C.3		1		UNL1		-0.5319
2		C		6.1900		-0.7525		-0.3369		C.ar		1		UNL1		0.1819
3		C		6.4744		0.6133		-0.4784		C.ar		1		UNL1		-0.1779
4		C		5.4392		1.5445		-0.4805		C.ar		1		UNL1		-0.1433
5		C		4.1051		1.1567		-0.3452		C.ar		1		UNL1		-0.1550
6		C		3.8104		-0.2057		-0.2105		C.ar		1		UNL1		0.3714
7		N		2.5057		-0.7271		-0.0769		N.pl3		1		UNL1		-0.7913
8		C		1.2819		-0.0987		-0.0857		C.cat		1		UNL1		0.8177
9		N		1.1578		1.1907		-0.0839		N.2		1		UNL1		-0.6302
10		C		-0.1354		1.7012		-0.1537		C.ar		1		UNL1		0.2971
11		C		-0.2936		3.0818		-0.3709		C.ar		1		UNL1		-0.1741
12		C		-1.5527		3.6627		-0.4512		C.ar		1		UNL1		-0.1285
13		C		-2.6857		2.8580		-0.3167		C.ar		1		UNL1		-0.0796
14		CL		-4.2876		3.5825		-0.4171		Cl		1		UNL1		-0.0341
15		C		-2.5666		1.4889		-0.1012		C.ar		1		UNL1		-0.1805
16		C		-1.2985		0.9144		-0.0200		C.ar		1		UNL1		0.1017
17		C		-1.1319		-0.5785		0.2693		C.3		1		UNL1		-0.1167
18		C		-2.1247		-1.4129		-0.4219		C.1		1		UNL1		0.0991
19		C		-2.9380		-2.1148		-0.9795		C.1		1		UNL1		0.0306
20		C		-3.9069		-2.9382		-1.6505		C.3		1		UNL1		-0.2828
21		C		-5.1683		-3.3807		-0.9186		C.3		1		UNL1		-0.2970
22		C		-4.1048		-4.3893		-1.2284		C.3		1		UNL1		-0.2989
23		C		-1.2661		-0.8431		1.8038		C.3		1		UNL1		0.8550
24		F		-1.0095		-2.1440		2.0795		F		1		UNL1		-0.2727
25		F		-2.4992		-0.5604		2.2552		F		1		UNL1		-0.2512
26		F		-0.3838		-0.1040		2.4988		F		1		UNL1		-0.2545
27		N		0.2104		-0.9752		-0.1544		N.pl3		1		UNL1		-0.6782
28		C		4.8578		-1.1434		-0.2080		C.ar		1		UNL1		-0.2672
29		H		8.0188		-1.6079		-1.1218		H		1		UNL1		0.1619
30		H		6.9150		-2.7953		-0.4088		H		1		UNL1		0.1513
31		H		7.8650		-1.7266		0.6314		H		1		UNL1		0.1666
32		H		7.5055		0.9417		-0.5849		H		1		UNL1		0.1192
33		H		5.6672		2.6019		-0.5883		H		1		UNL1		0.1308
34		H		3.3021		1.8790		-0.3375		H		1		UNL1		0.1825
35		H		2.4799		-1.7288		0.0503		H		1		UNL1		0.3258
36		H		0.6016		3.6861		-0.4780		H		1		UNL1		0.1444
37		H		-1.6602		4.7291		-0.6201		H		1		UNL1		0.1524
38		H		-3.4524		0.8720		-0.0006		H		1		UNL1		0.1631
39		H		-4.0222		-2.7311		-2.7125		H		1		UNL1		0.1813
40		H		-6.0886		-3.3972		-1.4949		H		1		UNL1		0.1666
41		H		-5.2823		-3.0544		0.1103		H		1		UNL1		0.1754
42		H		-4.2833		-5.1110		-2.0202		H		1		UNL1		0.1647
43		H		-3.4915		-4.7546		-0.4106		H		1		UNL1		0.1700
44		H		0.3793		-1.9719		-0.1456		H		1		UNL1		0.3272
45		H		4.6246		-2.2031		-0.1056		H		1		UNL1		0.1080
@<TRIPOS>BOND
1		39		20		1
2		42		22		1
3		20		22		1
4		20		19		1
5		20		21		1
6		40		21		1
7		22		21		1
8		22		43		1
9		29		1		1
10		19		18		3
11		21		41		1
12		37		12		1
13		33		4		1
14		32		3		1
15		4		3		ar
16		4		5		ar
17		3		2		ar
18		36		11		1
19		12		11		ar
20		12		13		ar
21		18		17		1
22		14		13		1
23		30		1		1
24		11		10		ar
25		5		34		1
26		5		6		ar
27		2		1		1
28		2		28		ar
29		13		15		ar
30		1		31		1
31		6		28		ar
32		6		7		1
33		28		45		1
34		27		44		1
35		27		8		1
36		27		17		1
37		10		9		1
38		10		16		ar
39		15		16		ar
40		15		38		1
41		8		9		2
42		8		7		1
43		7		35		1
44		16		17		1
45		17		23		1
46		23		24		1
47		23		25		1
48		23		26		1

