@<TRIPOS>MOLECULE
JKJ-2018-EJMC-726-3-4r
 54 57 0 0 0
SMALL
MULLIKEN_CHARGES

@<TRIPOS>ATOM
1		C		-1.1538		-0.2531		1.2316		C.ar		1		UNL1		-0.2631
2		C		-0.1091		-1.1800		1.2985		C.ar		1		UNL1		0.2015
3		C		0.0627		-2.0634		0.2167		C.ar		1		UNL1		0.1747
4		C		-0.8117		-2.0422		-0.8865		C.ar		1		UNL1		0.1852
5		C		-1.8567		-1.1165		-0.9009		C.ar		1		UNL1		-0.2538
6		C		-2.0426		-0.2103		0.1501		C.ar		1		UNL1		0.0964
7		C		0.7839		-1.2304		2.5125		C.3		1		UNL1		-0.5350
8		C		-0.6238		-2.9966		-2.0426		C.3		1		UNL1		-0.5395
9		N		1.0941		-3.0523		0.2519		N.pl3		1		UNL1		-0.7632
10		C		2.4408		-2.8245		0.1221		C.ar		1		UNL1		0.5740
11		C		3.3489		-3.9053		0.0817		C.ar		1		UNL1		-0.2259
12		C		4.6871		-3.5736		-0.0407		C.ar		1		UNL1		0.0667
13		N		5.1387		-2.3153		-0.1194		N.ar		1		UNL1		-0.5068
14		C		4.1829		-1.3693		-0.0722		C.ar		1		UNL1		0.6896
15		N		2.8630		-1.5532		0.0429		N.ar		1		UNL1		-0.5688
16		N		4.6892		-0.0850		-0.1546		N.pl3		1		UNL1		-0.7689
17		C		4.0844		1.1688		-0.1766		C.ar		1		UNL1		0.3819
18		C		4.9429		2.2888		-0.1836		C.ar		1		UNL1		-0.2040
19		C		4.4366		3.5772		-0.2136		C.ar		1		UNL1		-0.1413
20		C		3.0466		3.7906		-0.2383		C.ar		1		UNL1		0.1319
21		C		2.1917		2.6759		-0.2352		C.ar		1		UNL1		-0.1613
22		C		2.6923		1.3811		-0.2047		C.ar		1		UNL1		-0.1692
23		C		2.5109		5.1165		-0.2652		C.1		1		UNL1		0.2223
24		N		2.0688		6.1936		-0.2851		N.1		1		UNL1		-0.4884
25		C		-3.1087		0.8353		0.1176		C.ar		1		UNL1		0.0403
26		C		-2.7075		2.1768		0.2241		C.ar		1		UNL1		-0.1759
27		C		-3.6248		3.2251		0.1936		C.ar		1		UNL1		-0.1229
28		C		-4.9841		2.9508		0.0589		C.ar		1		UNL1		-0.1275
29		C		-5.4102		1.6279		-0.0320		C.ar		1		UNL1		-0.1755
30		C		-4.4923		0.5725		0.0004		C.ar		1		UNL1		-0.0524
31		C		-5.0404		-0.8330		-0.0852		C.3		1		UNL1		0.8069
32		F		-6.3681		-0.8698		0.1716		F		1		UNL1		-0.2719
33		F		-4.4506		-1.6758		0.7869		F		1		UNL1		-0.2660
34		F		-4.8807		-1.3693		-1.3245		F		1		UNL1		-0.2694
35		H		-1.3006		0.4299		2.0643		H		1		UNL1		0.1338
36		H		-2.5266		-1.0944		-1.7532		H		1		UNL1		0.1409
37		H		1.7671		-0.7972		2.2972		H		1		UNL1		0.1843
38		H		0.9525		-2.2629		2.8373		H		1		UNL1		0.1600
39		H		0.3396		-0.6754		3.3439		H		1		UNL1		0.1551
40		H		0.4007		-2.9634		-2.4308		H		1		UNL1		0.1717
41		H		-1.3062		-2.7525		-2.8614		H		1		UNL1		0.1687
42		H		-0.8265		-4.0381		-1.7551		H		1		UNL1		0.1526
43		H		0.8047		-4.0086		0.0938		H		1		UNL1		0.3329
44		H		3.0188		-4.9363		0.1503		H		1		UNL1		0.1337
45		H		5.4459		-4.3536		-0.0771		H		1		UNL1		0.1490
46		H		5.7000		-0.0954		-0.2079		H		1		UNL1		0.3465
47		H		6.0196		2.1373		-0.1626		H		1		UNL1		0.1367
48		H		5.1122		4.4265		-0.2166		H		1		UNL1		0.1562
49		H		1.1172		2.8293		-0.2613		H		1		UNL1		0.1574
50		H		2.0233		0.5332		-0.2041		H		1		UNL1		0.1997
51		H		-1.6470		2.3923		0.3159		H		1		UNL1		0.1509
52		H		-3.2746		4.2507		0.2696		H		1		UNL1		0.1492
53		H		-5.7112		3.7570		0.0318		H		1		UNL1		0.1430
54		H		-6.4677		1.4053		-0.1134		H		1		UNL1		0.1573
@<TRIPOS>BOND
1		41		8		1
2		40		8		1
3		8		42		1
4		8		4		1
5		36		5		1
6		34		31		1
7		5		4		ar
8		5		6		ar
9		4		3		ar
10		24		23		3
11		23		20		1
12		49		21		1
13		20		21		ar
14		20		19		ar
15		21		22		ar
16		48		19		1
17		19		18		ar
18		46		16		1
19		22		50		1
20		22		17		ar
21		18		17		ar
22		18		47		1
23		17		16		1
24		16		14		1
25		13		14		ar
26		13		12		ar
27		54		29		1
28		31		30		1
29		31		32		1
30		31		33		1
31		45		12		1
32		14		15		ar
33		12		11		ar
34		29		30		ar
35		29		28		ar
36		30		25		ar
37		53		28		1
38		15		10		ar
39		28		27		ar
40		11		10		ar
41		11		44		1
42		43		9		1
43		25		6		1
44		25		26		ar
45		10		9		1
46		6		1		ar
47		27		26		ar
48		27		52		1
49		3		9		1
50		3		2		ar
51		26		51		1
52		1		2		ar
53		1		35		1
54		2		7		1
55		37		7		1
56		7		38		1
57		7		39		1

