@<TRIPOS>MOLECULE
JKJ-2018-EJMC-726-3-4o
 55 58 0 0 0
SMALL
MULLIKEN_CHARGES

@<TRIPOS>ATOM
1		C		-1.4057		-0.5119		1.3265		C.ar		1		UNL1		-0.2748
2		C		-0.2684		-1.3230		1.3825		C.ar		1		UNL1		0.2017
3		C		-0.0254		-2.1984		0.3090		C.ar		1		UNL1		0.1689
4		C		-0.9225		-2.2864		-0.7728		C.ar		1		UNL1		0.1843
5		C		-2.0551		-1.4715		-0.7780		C.ar		1		UNL1		-0.2434
6		C		-2.3124		-0.5623		0.2582		C.ar		1		UNL1		0.1379
7		C		0.6505		-1.2594		2.5766		C.3		1		UNL1		-0.5343
8		C		-0.6624		-3.2374		-1.9181		C.3		1		UNL1		-0.5386
9		N		1.1120		-3.0660		0.3303		N.pl3		1		UNL1		-0.7629
10		C		2.4178		-2.6862		0.1555		C.ar		1		UNL1		0.5743
11		C		3.4471		-3.6527		0.1064		C.ar		1		UNL1		-0.2261
12		C		4.7324		-3.1677		-0.0613		C.ar		1		UNL1		0.0662
13		N		5.0299		-1.8667		-0.1751		N.ar		1		UNL1		-0.5081
14		C		3.9697		-1.0399		-0.1154		C.ar		1		UNL1		0.6888
15		N		2.6852		-1.3760		0.0424		N.ar		1		UNL1		-0.5678
16		N		4.3154		0.2937		-0.2346		N.pl3		1		UNL1		-0.7687
17		C		3.5626		1.4651		-0.2578		C.ar		1		UNL1		0.3815
18		C		4.2793		2.6798		-0.3012		C.ar		1		UNL1		-0.2043
19		C		3.6203		3.8971		-0.3343		C.ar		1		UNL1		-0.1415
20		C		2.2145		3.9408		-0.3258		C.ar		1		UNL1		0.1305
21		C		1.5001		2.7318		-0.2875		C.ar		1		UNL1		-0.1625
22		C		2.1546		1.5073		-0.2537		C.ar		1		UNL1		-0.1687
23		C		1.5255		5.1941		-0.3547		C.1		1		UNL1		0.2241
24		N		0.9642		6.2141		-0.3759		N.1		1		UNL1		-0.4893
25		C		-3.4741		0.3671		0.2305		C.ar		1		UNL1		0.0244
26		C		-3.2914		1.7124		0.5787		C.ar		1		UNL1		-0.1882
27		C		-4.3420		2.6303		0.5805		C.ar		1		UNL1		-0.1345
28		C		-5.6177		2.2016		0.2270		C.ar		1		UNL1		-0.1341
29		C		-5.8398		0.8675		-0.1220		C.ar		1		UNL1		-0.1983
30		C		-4.7819		-0.0480		-0.1229		C.ar		1		UNL1		0.3329
31		O		-4.9373		-1.3705		-0.4376		O.3		1		UNL1		-0.5112
32		C		-6.2384		-1.8525		-0.7299		C.3		1		UNL1		-0.2161
33		H		-1.6080		0.1560		2.1596		H		1		UNL1		0.1304
34		H		-2.7423		-1.5336		-1.6143		H		1		UNL1		0.1328
35		H		1.5710		-0.7151		2.3368		H		1		UNL1		0.1825
36		H		0.9470		-2.2618		2.9045		H		1		UNL1		0.1564
37		H		0.1627		-0.7524		3.4145		H		1		UNL1		0.1533
38		H		0.3424		-3.1028		-2.3352		H		1		UNL1		0.1704
39		H		-1.3873		-3.0818		-2.7222		H		1		UNL1		0.1642
40		H		-0.7442		-4.2897		-1.6100		H		1		UNL1		0.1475
41		H		0.9315		-4.0531		0.2028		H		1		UNL1		0.3306
42		H		3.2441		-4.7141		0.2023		H		1		UNL1		0.1314
43		H		5.5770		-3.8535		-0.1069		H		1		UNL1		0.1469
44		H		5.3182		0.4042		-0.3165		H		1		UNL1		0.3454
45		H		5.3667		2.6592		-0.3054		H		1		UNL1		0.1352
46		H		4.1880		4.8216		-0.3650		H		1		UNL1		0.1548
47		H		0.4146		2.7533		-0.2882		H		1		UNL1		0.1600
48		H		1.5928		0.5851		-0.2253		H		1		UNL1		0.2026
49		H		-2.2897		2.0456		0.8359		H		1		UNL1		0.1384
50		H		-4.1589		3.6672		0.8458		H		1		UNL1		0.1348
51		H		-6.4505		2.8995		0.2168		H		1		UNL1		0.1318
52		H		-6.8405		0.5488		-0.3892		H		1		UNL1		0.1322
53		H		-6.9239		-1.7023		0.1143		H		1		UNL1		0.1544
54		H		-6.1240		-2.9222		-0.9155		H		1		UNL1		0.1691
55		H		-6.6583		-1.3733		-1.6244		H		1		UNL1		0.1529
@<TRIPOS>BOND
1		39		8		1
2		38		8		1
3		8		40		1
4		8		4		1
5		55		32		1
6		34		5		1
7		54		32		1
8		5		4		ar
9		5		6		ar
10		4		3		ar
11		32		31		1
12		32		53		1
13		31		30		1
14		52		29		1
15		24		23		3
16		46		19		1
17		23		20		1
18		19		20		ar
19		19		18		ar
20		20		21		ar
21		44		16		1
22		45		18		1
23		18		17		ar
24		47		21		1
25		21		22		ar
26		17		22		ar
27		17		16		1
28		22		48		1
29		16		14		1
30		13		14		ar
31		13		12		ar
32		30		29		ar
33		30		25		ar
34		29		28		ar
35		14		15		ar
36		43		12		1
37		12		11		ar
38		15		10		ar
39		11		10		ar
40		11		42		1
41		10		9		1
42		41		9		1
43		51		28		1
44		28		27		ar
45		25		6		1
46		25		26		ar
47		6		1		ar
48		3		9		1
49		3		2		ar
50		26		27		ar
51		26		49		1
52		27		50		1
53		1		2		ar
54		1		33		1
55		2		7		1
56		35		7		1
57		7		36		1
58		7		37		1

