@<TRIPOS>MOLECULE
JKJ-2018-EJMC-726-3-4t
 57 60 0 0 0
SMALL
MULLIKEN_CHARGES

@<TRIPOS>ATOM
1		C		1.5613		-2.1121		-0.8416		C.ar		1		UNL1		-0.2727
2		C		0.2799		-2.6650		-0.8129		C.ar		1		UNL1		0.1901
3		C		-0.5516		-2.3890		0.2890		C.ar		1		UNL1		0.1689
4		C		-0.1008		-1.5893		1.3560		C.ar		1		UNL1		0.2022
5		C		1.1840		-1.0448		1.2770		C.ar		1		UNL1		-0.2770
6		C		2.0345		-1.2876		0.1892		C.ar		1		UNL1		0.1275
7		C		-0.2068		-3.5275		-1.9540		C.3		1		UNL1		-0.5394
8		C		-0.9603		-1.3318		2.5681		C.3		1		UNL1		-0.5343
9		N		-1.8518		-2.9832		0.3363		N.pl3		1		UNL1		-0.7631
10		C		-3.0415		-2.3197		0.1757		C.ar		1		UNL1		0.5739
11		C		-4.2637		-3.0270		0.1502		C.ar		1		UNL1		-0.2259
12		C		-5.4072		-2.2628		-0.0074		C.ar		1		UNL1		0.0663
13		N		-5.4025		-0.9294		-0.1325		N.ar		1		UNL1		-0.5074
14		C		-4.1812		-0.3649		-0.0947		C.ar		1		UNL1		0.6892
15		N		-3.0053		-0.9840		0.0520		N.ar		1		UNL1		-0.5681
16		N		-4.2149		1.0111		-0.2262		N.pl3		1		UNL1		-0.7689
17		C		-3.2138		1.9785		-0.2736		C.ar		1		UNL1		0.3811
18		C		-3.6331		3.3243		-0.3378		C.ar		1		UNL1		-0.2042
19		C		-2.7126		4.3572		-0.3949		C.ar		1		UNL1		-0.1415
20		C		-1.3341		4.0775		-0.3903		C.ar		1		UNL1		0.1302
21		C		-0.9158		2.7377		-0.3311		C.ar		1		UNL1		-0.1618
22		C		-1.8338		1.6972		-0.2733		C.ar		1		UNL1		-0.1680
23		C		-0.3753		5.1377		-0.4434		C.1		1		UNL1		0.2247
24		N		0.4074		5.9989		-0.4839		N.1		1		UNL1		-0.4894
25		C		3.3941		-0.6917		0.1321		C.ar		1		UNL1		0.0976
26		C		3.6271		0.6086		0.5980		C.ar		1		UNL1		-0.2384
27		C		4.9018		1.1872		0.5441		C.ar		1		UNL1		0.1829
28		C		5.9523		0.4374		0.0097		C.ar		1		UNL1		-0.2347
29		C		5.7570		-0.8681		-0.4638		C.ar		1		UNL1		0.1857
30		C		4.4761		-1.4171		-0.3969		C.ar		1		UNL1		-0.2407
31		C		6.9162		-1.6606		-1.0237		C.3		1		UNL1		-0.5315
32		C		5.1261		2.5918		1.0561		C.3		1		UNL1		-0.5326
33		H		2.1917		-2.2966		-1.7072		H		1		UNL1		0.1291
34		H		1.5462		-0.4461		2.1083		H		1		UNL1		0.1310
35		H		0.5121		-3.5219		-2.7783		H		1		UNL1		0.1649
36		H		-1.1705		-3.1777		-2.3414		H		1		UNL1		0.1724
37		H		-0.3426		-4.5757		-1.6516		H		1		UNL1		0.1495
38		H		-0.3591		-0.9380		3.3930		H		1		UNL1		0.1541
39		H		-1.7495		-0.6052		2.3434		H		1		UNL1		0.1833
40		H		-1.4552		-2.2482		2.9077		H		1		UNL1		0.1574
41		H		-1.8988		-3.9867		0.2184		H		1		UNL1		0.3309
42		H		-4.3065		-4.1059		0.2548		H		1		UNL1		0.1320
43		H		-6.3863		-2.7385		-0.0351		H		1		UNL1		0.1476
44		H		-5.1666		1.3472		-0.3018		H		1		UNL1		0.3457
45		H		-4.6962		3.5539		-0.3398		H		1		UNL1		0.1355
46		H		-3.0534		5.3865		-0.4417		H		1		UNL1		0.1551
47		H		0.1455		2.5088		-0.3332		H		1		UNL1		0.1591
48		H		-1.4976		0.6718		-0.2295		H		1		UNL1		0.2027
49		H		2.7960		1.1940		0.9847		H		1		UNL1		0.1257
50		H		6.9465		0.8781		-0.0415		H		1		UNL1		0.1152
51		H		4.3172		-2.4371		-0.7379		H		1		UNL1		0.1201
52		H		6.5928		-2.6426		-1.3833		H		1		UNL1		0.1533
53		H		7.6935		-1.8226		-0.2663		H		1		UNL1		0.1629
54		H		7.3908		-1.1364		-1.8624		H		1		UNL1		0.1624
55		H		6.1173		2.9650		0.7798		H		1		UNL1		0.1553
56		H		5.0500		2.6338		2.1504		H		1		UNL1		0.1637
57		H		4.3807		3.2887		0.6558		H		1		UNL1		0.1705
@<TRIPOS>BOND
1		35		7		1
2		36		7		1
3		7		37		1
4		7		2		1
5		54		31		1
6		33		1		1
7		52		31		1
8		31		29		1
9		31		53		1
10		1		2		ar
11		1		6		ar
12		2		3		ar
13		51		30		1
14		24		23		3
15		29		30		ar
16		29		28		ar
17		23		20		1
18		46		19		1
19		30		25		ar
20		19		20		ar
21		19		18		ar
22		20		21		ar
23		45		18		1
24		18		17		ar
25		47		21		1
26		21		22		ar
27		44		16		1
28		17		22		ar
29		17		16		1
30		22		48		1
31		16		14		1
32		13		14		ar
33		13		12		ar
34		14		15		ar
35		50		28		1
36		43		12		1
37		12		11		ar
38		28		27		ar
39		15		10		ar
40		25		6		1
41		25		26		ar
42		11		10		ar
43		11		42		1
44		10		9		1
45		6		5		ar
46		41		9		1
47		3		9		1
48		3		4		ar
49		27		26		ar
50		27		32		1
51		26		49		1
52		57		32		1
53		55		32		1
54		32		56		1
55		5		4		ar
56		5		34		1
57		4		8		1
58		39		8		1
59		8		40		1
60		8		38		1

