@<TRIPOS>MOLECULE
JKJ-2018-EJMC-726-3-4c
 52 55 0 0 0
SMALL
MULLIKEN_CHARGES

@<TRIPOS>ATOM
1		C		-1.5707		-1.9452		-1.3242		C.ar		1		UNL1		-0.2706
2		C		-0.3098		-2.5293		-1.1906		C.ar		1		UNL1		0.1902
3		C		0.3910		-2.3568		0.0184		C.ar		1		UNL1		0.1740
4		C		-0.1658		-1.6252		1.0844		C.ar		1		UNL1		0.1999
5		C		-1.4250		-1.0463		0.9018		C.ar		1		UNL1		-0.2729
6		C		-2.1452		-1.1923		-0.2912		C.ar		1		UNL1		0.1252
7		C		0.2853		-3.3317		-2.3237		C.3		1		UNL1		-0.5397
8		C		0.5609		-1.4615		2.3952		C.3		1		UNL1		-0.5343
9		N		1.6620		-2.9923		0.1719		N.pl3		1		UNL1		-0.7636
10		C		2.8802		-2.3583		0.1909		C.ar		1		UNL1		0.5729
11		C		4.0759		-3.1056		0.2549		C.ar		1		UNL1		-0.2264
12		C		5.2510		-2.3735		0.2772		C.ar		1		UNL1		0.0673
13		N		5.2962		-1.0362		0.2409		N.ar		1		UNL1		-0.5055
14		C		4.0952		-0.4312		0.1802		C.ar		1		UNL1		0.6900
15		N		2.8926		-1.0175		0.1534		N.ar		1		UNL1		-0.5693
16		N		4.1853		0.9470		0.1434		N.pl3		1		UNL1		-0.7691
17		C		3.2293		1.9558		0.0448		C.ar		1		UNL1		0.3814
18		C		3.7029		3.2841		0.0866		C.ar		1		UNL1		-0.2043
19		C		2.8321		4.3560		-0.0124		C.ar		1		UNL1		-0.1412
20		C		1.4506		4.1340		-0.1562		C.ar		1		UNL1		0.1307
21		C		0.9780		2.8119		-0.1978		C.ar		1		UNL1		-0.1592
22		C		1.8466		1.7322		-0.1003		C.ar		1		UNL1		-0.1680
23		C		0.5441		5.2357		-0.2613		C.1		1		UNL1		0.2261
24		N		-0.1938		6.1321		-0.3490		N.1		1		UNL1		-0.4866
25		C		-3.4844		-0.5704		-0.4550		C.ar		1		UNL1		0.0810
26		C		-4.4018		-0.5563		0.6040		C.ar		1		UNL1		-0.1882
27		C		-5.6653		0.0331		0.4497		C.ar		1		UNL1		0.1326
28		C		-6.0300		0.6188		-0.7734		C.ar		1		UNL1		-0.1353
29		C		-5.1218		0.6056		-1.8284		C.ar		1		UNL1		-0.1359
30		C		-3.8662		0.0193		-1.6727		C.ar		1		UNL1		-0.1610
31		C		-6.5910		0.0247		1.5463		C.1		1		UNL1		0.2383
32		N		-7.3414		0.0160		2.4351		N.1		1		UNL1		-0.4779
33		H		-2.1227		-2.0950		-2.2483		H		1		UNL1		0.1311
34		H		-1.8476		-0.4572		1.7113		H		1		UNL1		0.1373
35		H		0.3677		-4.3994		-2.0764		H		1		UNL1		0.1539
36		H		1.2926		-2.9816		-2.5767		H		1		UNL1		0.1755
37		H		-0.3356		-3.2571		-3.2209		H		1		UNL1		0.1656
38		H		-0.1183		-1.1030		3.1741		H		1		UNL1		0.1568
39		H		1.3832		-0.7436		2.3007		H		1		UNL1		0.1871
40		H		0.9987		-2.4094		2.7264		H		1		UNL1		0.1614
41		H		1.6974		-3.9850		-0.0192		H		1		UNL1		0.3328
42		H		4.0760		-4.1897		0.2929		H		1		UNL1		0.1339
43		H		6.2134		-2.8801		0.3276		H		1		UNL1		0.1500
44		H		5.1503		1.2492		0.1900		H		1		UNL1		0.3470
45		H		4.7687		3.4688		0.1993		H		1		UNL1		0.1370
46		H		3.2139		5.3713		0.0214		H		1		UNL1		0.1569
47		H		-0.0862		2.6291		-0.3093		H		1		UNL1		0.1567
48		H		1.4713		0.7203		-0.1379		H		1		UNL1		0.1982
49		H		-4.1483		-1.0237		1.5498		H		1		UNL1		0.1604
50		H		-7.0087		1.0738		-0.8837		H		1		UNL1		0.1615
51		H		-5.3896		1.0641		-2.7758		H		1		UNL1		0.1496
52		H		-3.1597		0.0396		-2.4975		H		1		UNL1		0.1464
@<TRIPOS>BOND
1		37		7		1
2		51		29		1
3		36		7		1
4		52		30		1
5		7		35		1
6		7		2		1
7		33		1		1
8		29		30		ar
9		29		28		ar
10		30		25		ar
11		1		2		ar
12		1		6		ar
13		2		3		ar
14		50		28		1
15		28		27		ar
16		25		6		1
17		25		26		ar
18		24		23		3
19		47		21		1
20		6		5		ar
21		23		20		1
22		21		20		ar
23		21		22		ar
24		20		19		ar
25		48		22		1
26		22		17		ar
27		41		9		1
28		19		46		1
29		19		18		ar
30		3		9		1
31		3		4		ar
32		17		18		ar
33		17		16		1
34		18		45		1
35		16		14		1
36		16		44		1
37		15		14		ar
38		15		10		ar
39		9		10		1
40		14		13		ar
41		10		11		ar
42		13		12		ar
43		11		12		ar
44		11		42		1
45		12		43		1
46		27		26		ar
47		27		31		1
48		26		49		1
49		5		4		ar
50		5		34		1
51		4		8		1
52		31		32		3
53		39		8		1
54		8		40		1
55		8		38		1

