@<TRIPOS>MOLECULE
JKJ-2019-EJMC-11-4j
 42 45 0 0 0
SMALL
MULLIKEN_CHARGES
****
Gaussian 16 #p B3LYP/6-31G* opt
@<TRIPOS>ATOM
1		F		-1.0908		1.9850		2.0957		F		1		UNL1		-0.2703
2		C		-1.5691		0.7509		1.8136		C.3		1		UNL1		0.8564
3		F		-2.8332		0.6836		2.2626		F		1		UNL1		-0.2511
4		F		-0.8295		-0.1352		2.5038		F		1		UNL1		-0.2549
5		C		-1.4815		0.4741		0.2777		C.ar		1		UNL1		-0.1172
6		C		-2.3108		1.4723		-0.4111		C.1		1		UNL1		0.0986
7		C		-2.9864		2.3091		-0.9666		C.1		1		UNL1		0.0332
8		C		-3.7930		3.2939		-1.6344		C.3		1		UNL1		-0.2833
9		C		-4.9289		3.9826		-0.8872		C.3		1		UNL1		-0.2971
10		C		-3.6979		4.7619		-1.2354		C.3		1		UNL1		-0.2986
11		N		-0.0889		0.6299		-0.1415		N.ar		1		UNL1		-0.6811
12		C		0.8085		-0.4217		-0.0865		C.ar		1		UNL1		0.8249
13		N		2.1243		-0.0113		-0.0818		N.pl3		1		UNL1		-0.8064
14		C		3.3071		-0.7462		-0.2261		C.ar		1		UNL1		0.3468
15		C		3.3527		-2.1451		-0.3586		C.ar		1		UNL1		-0.1466
16		C		4.5719		-2.8021		-0.5046		C.ar		1		UNL1		-0.1418
17		C		5.7753		-2.0976		-0.5176		C.ar		1		UNL1		-0.1267
18		C		5.7521		-0.7102		-0.3822		C.ar		1		UNL1		-0.1617
19		C		4.5355		-0.0539		-0.2403		C.ar		1		UNL1		0.0119
20		BR		4.5631		1.8640		-0.0595		Br		1		UNL1		-0.1315
21		N		0.4612		-1.6689		-0.0893		N.ar		1		UNL1		-0.6340
22		C		-0.9029		-1.9448		-0.1555		C.ar		1		UNL1		0.2975
23		C		-1.3009		-3.2750		-0.3764		C.ar		1		UNL1		-0.1735
24		C		-2.6429		-3.6250		-0.4572		C.ar		1		UNL1		-0.1286
25		C		-3.6159		-2.6334		-0.3192		C.ar		1		UNL1		-0.0790
26		CL		-5.3199		-3.0636		-0.4205		Cl		1		UNL1		-0.0312
27		C		-3.2573		-1.3072		-0.0997		C.ar		1		UNL1		-0.1804
28		C		-1.9080		-0.9653		-0.0177		C.ar		1		UNL1		0.1019
29		H		-3.9688		3.0977		-2.6901		H		1		UNL1		0.1816
30		H		-5.0811		3.6995		0.1494		H		1		UNL1		0.1755
31		H		-5.8412		4.1680		-1.4465		H		1		UNL1		0.1668
32		H		-3.7507		5.4925		-2.0373		H		1		UNL1		0.1654
33		H		-3.0078		5.0136		-0.4362		H		1		UNL1		0.1708
34		H		0.2554		1.5805		-0.1313		H		1		UNL1		0.3344
35		H		2.2799		0.9824		0.0326		H		1		UNL1		0.3400
36		H		2.4181		-2.6874		-0.3365		H		1		UNL1		0.1963
37		H		4.5740		-3.8838		-0.6053		H		1		UNL1		0.1393
38		H		6.7238		-2.6141		-0.6287		H		1		UNL1		0.1377
39		H		6.6705		-0.1334		-0.3869		H		1		UNL1		0.1541
40		H		-0.5265		-4.0274		-0.4867		H		1		UNL1		0.1438
41		H		-2.9366		-4.6551		-0.6292		H		1		UNL1		0.1534
42		H		-4.0205		-0.5443		0.0037		H		1		UNL1		0.1647
@<TRIPOS>BOND
1		29		8		1
2		32		10		1
3		8		10		1
4		8		7		1
5		8		9		1
6		31		9		1
7		10		9		1
8		10		33		1
9		7		6		3
10		9		30		1
11		41		24		1
12		38		17		1
13		37		16		1
14		17		16		ar
15		17		18		ar
16		16		15		ar
17		40		23		1
18		24		23		ar
19		24		25		ar
20		26		25		1
21		6		5		1
22		39		18		1
23		18		19		ar
24		23		22		ar
25		15		36		1
26		15		14		ar
27		25		27		ar
28		19		14		ar
29		19		20		1
30		14		13		1
31		22		21		ar
32		22		28		ar
33		11		34		1
34		11		12		ar
35		11		5		ar
36		27		28		ar
37		27		42		1
38		21		12		ar
39		12		13		1
40		13		35		1
41		28		5		ar
42		5		2		1
43		2		1		1
44		2		3		1
45		2		4		1

