@<TRIPOS>MOLECULE
JKJ-2018-EJMC-726-3-4u
 51 54 0 0 0
SMALL
MULLIKEN_CHARGES

@<TRIPOS>ATOM
1		C		0.7974		-1.1673		-1.1352		C.ar		1		UNL1		-0.2745
2		C		-0.5001		-1.6847		-1.1923		C.ar		1		UNL1		0.1995
3		C		-0.9840		-2.3916		-0.0749		C.ar		1		UNL1		0.1765
4		C		-0.1746		-2.6028		1.0582		C.ar		1		UNL1		0.1885
5		C		1.1205		-2.0828		1.0648		C.ar		1		UNL1		-0.2703
6		C		1.6253		-1.3538		-0.0204		C.ar		1		UNL1		0.1267
7		C		-1.3397		-1.4876		-2.4290		C.3		1		UNL1		-0.5345
8		C		-0.6905		-3.3814		2.2457		C.3		1		UNL1		-0.5410
9		N		-2.2896		-2.9706		-0.0999		N.pl3		1		UNL1		-0.7635
10		C		-3.4791		-2.2876		-0.0213		C.ar		1		UNL1		0.5727
11		C		-4.7018		-2.9894		0.0459		C.ar		1		UNL1		-0.2269
12		C		-5.8463		-2.2133		0.1170		C.ar		1		UNL1		0.0675
13		N		-5.8390		-0.8750		0.1225		N.ar		1		UNL1		-0.5056
14		C		-4.6165		-0.3154		0.0530		C.ar		1		UNL1		0.6901
15		N		-3.4386		-0.9469		-0.0164		N.ar		1		UNL1		-0.5690
16		N		-4.6537		1.0655		0.0585		N.pl3		1		UNL1		-0.7690
17		C		-3.6584		2.0399		0.0194		C.ar		1		UNL1		0.3813
18		C		-4.0884		3.3824		-0.0369		C.ar		1		UNL1		-0.2043
19		C		-3.1759		4.4232		-0.0736		C.ar		1		UNL1		-0.1410
20		C		-1.7954		4.1547		-0.0558		C.ar		1		UNL1		0.1306
21		C		-1.3662		2.8186		0.0035		C.ar		1		UNL1		-0.1590
22		C		-2.2767		1.7699		0.0421		C.ar		1		UNL1		-0.1681
23		C		-0.8472		5.2252		-0.0967		C.1		1		UNL1		0.2266
24		N		-0.0771		6.0978		-0.1307		N.1		1		UNL1		-0.4859
25		C		3.0050		-0.8030		0.0077		C.ar		1		UNL1		0.0839
26		C		3.5366		-0.2707		1.1932		C.ar		1		UNL1		-0.1673
27		C		4.8323		0.2376		1.2043		C.ar		1		UNL1		-0.0702
28		C		5.6323		0.2419		0.0629		C.ar		1		UNL1		-0.1277
29		C		5.0899		-0.2883		-1.1064		C.ar		1		UNL1		-0.0704
30		C		3.7997		-0.8085		-1.1498		C.ar		1		UNL1		-0.1661
31		CL		6.0732		-0.3122		-2.5622		Cl		1		UNL1		-0.0089
32		CL		5.4787		0.9055		2.6949		Cl		1		UNL1		-0.0074
33		H		1.1654		-0.5964		-1.9835		H		1		UNL1		0.1373
34		H		1.7542		-2.2656		1.9284		H		1		UNL1		0.1345
35		H		-0.7201		-1.1684		-3.2721		H		1		UNL1		0.1556
36		H		-2.1114		-0.7277		-2.2637		H		1		UNL1		0.1879
37		H		-1.8549		-2.4129		-2.7086		H		1		UNL1		0.1611
38		H		0.0167		-3.3337		3.0784		H		1		UNL1		0.1675
39		H		-1.6532		-2.9908		2.5943		H		1		UNL1		0.1754
40		H		-0.8395		-4.4449		2.0107		H		1		UNL1		0.1538
41		H		-2.3480		-3.9559		0.1215		H		1		UNL1		0.3327
42		H		-4.7449		-4.0732		0.0354		H		1		UNL1		0.1338
43		H		-6.8269		-2.6833		0.1717		H		1		UNL1		0.1499
44		H		-5.6075		1.4027		0.0932		H		1		UNL1		0.3470
45		H		-5.1532		3.6030		-0.0541		H		1		UNL1		0.1367
46		H		-3.5244		5.4500		-0.1178		H		1		UNL1		0.1568
47		H		-0.3031		2.6001		0.0214		H		1		UNL1		0.1582
48		H		-1.9335		0.7471		0.0930		H		1		UNL1		0.1976
49		H		2.9357		-0.2283		2.0943		H		1		UNL1		0.1616
50		H		6.6380		0.6430		0.0838		H		1		UNL1		0.1786
51		H		3.4250		-1.2386		-2.0713		H		1		UNL1		0.1609
@<TRIPOS>BOND
1		35		7		1
2		37		7		1
3		31		29		1
4		7		36		1
5		7		2		1
6		51		30		1
7		33		1		1
8		2		1		ar
9		2		3		ar
10		30		29		ar
11		30		25		ar
12		1		6		ar
13		29		28		ar
14		24		23		3
15		46		19		1
16		9		3		1
17		9		10		1
18		9		41		1
19		23		20		1
20		3		4		ar
21		19		20		ar
22		19		18		ar
23		20		21		ar
24		45		18		1
25		18		17		ar
26		10		15		ar
27		10		11		ar
28		6		25		1
29		6		5		ar
30		15		14		ar
31		21		47		1
32		21		22		ar
33		25		26		ar
34		17		22		ar
35		17		16		1
36		42		11		1
37		22		48		1
38		11		12		ar
39		14		16		1
40		14		13		ar
41		16		44		1
42		28		50		1
43		28		27		ar
44		12		13		ar
45		12		43		1
46		4		5		ar
47		4		8		1
48		5		34		1
49		26		27		ar
50		26		49		1
51		27		32		1
52		40		8		1
53		8		39		1
54		8		38		1

