@<TRIPOS>MOLECULE
JKJ-2018-EJMC-726-3-4e
 51 54 0 0 0
SMALL
MULLIKEN_CHARGES

@<TRIPOS>ATOM
1		C		-1.3539		-2.4810		-0.9981		C.ar		1		UNL1		-0.2718
2		C		-0.0110		-2.8504		-0.9131		C.ar		1		UNL1		0.1858
3		C		0.7346		-2.4432		0.2104		C.ar		1		UNL1		0.1765
4		C		0.1421		-1.6865		1.2393		C.ar		1		UNL1		0.2011
5		C		-1.2010		-1.3239		1.1030		C.ar		1		UNL1		-0.2758
6		C		-1.9710		-1.7106		-0.0025		C.ar		1		UNL1		0.1287
7		C		0.6303		-3.6613		-2.0150		C.3		1		UNL1		-0.5399
8		C		0.9102		-1.2968		2.4768		C.3		1		UNL1		-0.5354
9		N		2.0893		-2.8811		0.3235		N.pl3		1		UNL1		-0.7641
10		C		3.2135		-2.0982		0.2297		C.ar		1		UNL1		0.5737
11		C		4.4953		-2.6886		0.2736		C.ar		1		UNL1		-0.2273
12		C		5.5699		-1.8212		0.1797		C.ar		1		UNL1		0.0675
13		N		5.4460		-0.4944		0.0543		N.ar		1		UNL1		-0.5066
14		C		4.1773		-0.0450		0.0234		C.ar		1		UNL1		0.6899
15		N		3.0562		-0.7720		0.1022		N.ar		1		UNL1		-0.5685
16		N		4.0961		1.3282		-0.1046		N.pl3		1		UNL1		-0.7691
17		C		3.0223		2.2104		-0.2000		C.ar		1		UNL1		0.3820
18		C		3.3355		3.5855		-0.2382		C.ar		1		UNL1		-0.2045
19		C		2.3399		4.5421		-0.3395		C.ar		1		UNL1		-0.1408
20		C		0.9898		4.1534		-0.4065		C.ar		1		UNL1		0.1306
21		C		0.6772		2.7844		-0.3720		C.ar		1		UNL1		-0.1592
22		C		1.6716		1.8193		-0.2709		C.ar		1		UNL1		-0.1681
23		C		-0.0434		5.1376		-0.5088		C.1		1		UNL1		0.2261
24		N		-0.8809		5.9421		-0.5915		N.1		1		UNL1		-0.4857
25		C		-3.4025		-1.3296		-0.1111		C.ar		1		UNL1		0.0853
26		C		-3.8400		-0.0685		0.3260		C.ar		1		UNL1		-0.1749
27		C		-5.1850		0.2763		0.2240		C.ar		1		UNL1		-0.0712
28		C		-6.1255		-0.6030		-0.3102		C.ar		1		UNL1		-0.1275
29		C		-5.6914		-1.8555		-0.7455		C.ar		1		UNL1		-0.1327
30		C		-4.3495		-2.2179		-0.6477		C.ar		1		UNL1		-0.1671
31		CL		-5.7047		1.8651		0.7721		Cl		1		UNL1		-0.0177
32		H		-1.9211		-2.7696		-1.8789		H		1		UNL1		0.1310
33		H		-1.6699		-0.7648		1.9083		H		1		UNL1		0.1356
34		H		0.9026		-4.6726		-1.6805		H		1		UNL1		0.1508
35		H		1.5476		-3.1867		-2.3818		H		1		UNL1		0.1751
36		H		-0.0538		-3.7765		-2.8605		H		1		UNL1		0.1660
37		H		0.2302		-0.9712		3.2694		H		1		UNL1		0.1559
38		H		1.6073		-0.4787		2.2648		H		1		UNL1		0.1865
39		H		1.5054		-2.1354		2.8544		H		1		UNL1		0.1596
40		H		2.2503		-3.8717		0.1969		H		1		UNL1		0.3319
41		H		4.6318		-3.7593		0.3828		H		1		UNL1		0.1329
42		H		6.5892		-2.2030		0.2069		H		1		UNL1		0.1489
43		H		5.0184		1.7448		-0.1272		H		1		UNL1		0.3467
44		H		4.3756		3.8988		-0.1847		H		1		UNL1		0.1362
45		H		2.5990		5.5956		-0.3660		H		1		UNL1		0.1564
46		H		-0.3613		2.4735		-0.4284		H		1		UNL1		0.1577
47		H		1.4179		0.7695		-0.2496		H		1		UNL1		0.1978
48		H		-3.1318		0.6515		0.7214		H		1		UNL1		0.1582
49		H		-7.1680		-0.3123		-0.3812		H		1		UNL1		0.1560
50		H		-6.4121		-2.5573		-1.1561		H		1		UNL1		0.1412
51		H		-4.0353		-3.2076		-0.9648		H		1		UNL1		0.1361
@<TRIPOS>BOND
1		36		7		1
2		35		7		1
3		7		34		1
4		7		2		1
5		32		1		1
6		50		29		1
7		1		2		ar
8		1		6		ar
9		51		30		1
10		2		3		ar
11		29		30		ar
12		29		28		ar
13		30		25		ar
14		24		23		3
15		23		20		1
16		46		21		1
17		20		21		ar
18		20		19		ar
19		49		28		1
20		21		22		ar
21		45		19		1
22		19		18		ar
23		28		27		ar
24		22		47		1
25		22		17		ar
26		18		17		ar
27		18		44		1
28		17		16		1
29		43		16		1
30		25		6		1
31		25		26		ar
32		16		14		1
33		6		5		ar
34		14		13		ar
35		14		15		ar
36		13		12		ar
37		15		10		ar
38		12		42		1
39		12		11		ar
40		40		9		1
41		3		9		1
42		3		4		ar
43		27		26		ar
44		27		31		1
45		10		11		ar
46		10		9		1
47		11		41		1
48		26		48		1
49		5		4		ar
50		5		33		1
51		4		8		1
52		38		8		1
53		8		39		1
54		8		37		1

