@<TRIPOS>MOLECULE
JKJ-2019-EJMC-11-4h
 42 45 0 0 0
SMALL
MULLIKEN_CHARGES
****
Gaussian 16 #p B3LYP/6-31G* opt
@<TRIPOS>ATOM
1		F		-3.5287		0.3922		2.5106		F		1		UNL1		-0.2491
2		C		-2.3264		0.8185		2.0934		C.3		1		UNL1		0.8573
3		F		-1.3812		0.1049		2.7313		F		1		UNL1		-0.2554
4		F		-2.1842		2.1096		2.4741		F		1		UNL1		-0.2710
5		C		-2.1680		0.6916		0.5438		C.ar		1		UNL1		-0.1165
6		C		-3.2251		1.4901		-0.0907		C.1		1		UNL1		0.0952
7		C		-4.0904		2.1597		-0.6086		C.1		1		UNL1		0.0347
8		C		-5.1201		2.9479		-1.2290		C.3		1		UNL1		-0.2851
9		C		-5.0594		3.2457		-2.7230		C.3		1		UNL1		-0.2981
10		C		-6.0958		2.2978		-2.2031		C.3		1		UNL1		-0.2966
11		N		-0.8617		1.2335		0.1680		N.ar		1		UNL1		-0.6797
12		C		0.2772		0.4477		0.1668		C.ar		1		UNL1		0.8198
13		N		1.4470		1.1737		0.2346		N.pl3		1		UNL1		-0.7915
14		C		2.7853		0.7704		0.0640		C.ar		1		UNL1		0.3667
15		C		3.7639		1.7741		0.1610		C.ar		1		UNL1		-0.2023
16		C		5.1130		1.4771		0.0020		C.ar		1		UNL1		-0.1522
17		C		5.4947		0.1630		-0.2599		C.ar		1		UNL1		0.0851
18		BR		7.3478		-0.2567		-0.4822		Br		1		UNL1		-0.1378
19		C		4.5384		-0.8437		-0.3577		C.ar		1		UNL1		-0.1665
20		C		3.1851		-0.5494		-0.1945		C.ar		1		UNL1		-0.1461
21		N		0.2644		-0.8422		0.0588		N.ar		1		UNL1		-0.6321
22		C		-0.9815		-1.4539		-0.0609		C.ar		1		UNL1		0.2969
23		C		-1.0217		-2.8193		-0.3941		C.ar		1		UNL1		-0.1736
24		C		-2.2272		-3.4961		-0.5297		C.ar		1		UNL1		-0.1284
25		C		-3.4239		-2.8044		-0.3332		C.ar		1		UNL1		-0.0792
26		CL		-4.9585		-3.6500		-0.5025		Cl		1		UNL1		-0.0308
27		C		-3.4209		-1.4531		-0.0022		C.ar		1		UNL1		-0.1824
28		C		-2.2061		-0.7817		0.1325		C.ar		1		UNL1		0.1010
29		H		-5.5298		3.7374		-0.6024		H		1		UNL1		0.1794
30		H		-4.2200		2.8347		-3.2751		H		1		UNL1		0.1737
31		H		-5.3690		4.2380		-3.0379		H		1		UNL1		0.1651
32		H		-5.9664		1.2381		-2.3988		H		1		UNL1		0.1776
33		H		-7.1292		2.6281		-2.1541		H		1		UNL1		0.1668
34		H		-0.7793		2.2378		0.2495		H		1		UNL1		0.3291
35		H		1.3401		2.1519		0.4624		H		1		UNL1		0.3281
36		H		3.4686		2.8026		0.3610		H		1		UNL1		0.1279
37		H		5.8584		2.2609		0.0793		H		1		UNL1		0.1545
38		H		4.8442		-1.8650		-0.5576		H		1		UNL1		0.1565
39		H		2.4369		-1.3264		-0.2565		H		1		UNL1		0.1940
40		H		-0.0789		-3.3349		-0.5466		H		1		UNL1		0.1453
41		H		-2.2441		-4.5496		-0.7883		H		1		UNL1		0.1545
42		H		-4.3556		-0.9251		0.1488		H		1		UNL1		0.1652
@<TRIPOS>BOND
1		30		9		1
2		31		9		1
3		9		10		1
4		9		8		1
5		32		10		1
6		10		33		1
7		10		8		1
8		8		7		1
9		8		29		1
10		41		24		1
11		7		6		3
12		38		19		1
13		40		23		1
14		24		23		ar
15		24		25		ar
16		26		25		1
17		18		17		1
18		23		22		ar
19		19		17		ar
20		19		20		ar
21		25		27		ar
22		17		16		ar
23		39		20		1
24		20		14		ar
25		6		5		1
26		22		21		ar
27		22		28		ar
28		27		28		ar
29		27		42		1
30		16		37		1
31		16		15		ar
32		21		12		ar
33		14		15		ar
34		14		13		1
35		28		5		ar
36		15		36		1
37		12		11		ar
38		12		13		1
39		11		34		1
40		11		5		ar
41		13		35		1
42		5		2		1
43		2		4		1
44		2		1		1
45		2		3		1

