@<TRIPOS>MOLECULE
JKJ-2018-EJMC-726-3-4m
 55 58 0 0 0
SMALL
MULLIKEN_CHARGES

@<TRIPOS>ATOM
1		C		-1.0451		-1.1149		1.2668		C.ar		1		UNL1		-0.2805
2		C		0.2549		-1.6256		1.3168		C.ar		1		UNL1		0.2028
3		C		0.7175		-2.3792		0.2216		C.ar		1		UNL1		0.1686
4		C		-0.1155		-2.6381		-0.8833		C.ar		1		UNL1		0.1903
5		C		-1.4106		-2.1180		-0.8845		C.ar		1		UNL1		-0.2760
6		C		-1.8999		-1.3449		0.1789		C.ar		1		UNL1		0.1340
7		C		1.1175		-1.3852		2.5304		C.3		1		UNL1		-0.5344
8		C		0.3838		-3.4480		-2.0570		C.3		1		UNL1		-0.5390
9		N		2.0289		-2.9496		0.2423		N.pl3		1		UNL1		-0.7639
10		C		3.2086		-2.2652		0.1001		C.ar		1		UNL1		0.5748
11		C		4.4388		-2.9574		0.0488		C.ar		1		UNL1		-0.2265
12		C		5.5732		-2.1761		-0.0874		C.ar		1		UNL1		0.0665
13		N		5.5528		-0.8397		-0.1696		N.ar		1		UNL1		-0.5079
14		C		4.3254		-0.2903		-0.1100		C.ar		1		UNL1		0.6891
15		N		3.1563		-0.9266		0.0193		N.ar		1		UNL1		-0.5683
16		N		4.3455		1.0893		-0.1968		N.pl3		1		UNL1		-0.7690
17		C		3.3372		2.0501		-0.2071		C.ar		1		UNL1		0.3814
18		C		3.7475		3.3999		-0.2353		C.ar		1		UNL1		-0.2044
19		C		2.8203		4.4279		-0.2545		C.ar		1		UNL1		-0.1414
20		C		1.4437		4.1393		-0.2464		C.ar		1		UNL1		0.1300
21		C		1.0341		2.7958		-0.2219		C.ar		1		UNL1		-0.1608
22		C		1.9591		1.7597		-0.2023		C.ar		1		UNL1		-0.1682
23		C		0.4797		5.1961		-0.2622		C.1		1		UNL1		0.2252
24		N		-0.3045		6.0568		-0.2733		N.1		1		UNL1		-0.4885
25		C		-3.2768		-0.7938		0.1561		C.ar		1		UNL1		0.0835
26		C		-4.3405		-1.5100		-0.4094		C.ar		1		UNL1		-0.1840
27		C		-5.6397		-1.0001		-0.4398		C.ar		1		UNL1		-0.2002
28		C		-5.9018		0.2611		0.1076		C.ar		1		UNL1		0.3799
29		C		-4.8514		0.9940		0.6799		C.ar		1		UNL1		-0.1771
30		C		-3.5664		0.4723		0.7015		C.ar		1		UNL1		-0.1802
31		O		-7.1274		0.8593		0.1348		O.3		1		UNL1		-0.5046
32		C		-8.2229		0.1737		-0.4500		C.3		1		UNL1		-0.2155
33		H		-1.4150		-0.5567		2.1226		H		1		UNL1		0.1302
34		H		-2.0407		-2.2875		-1.7535		H		1		UNL1		0.1266
35		H		1.8887		-0.6349		2.3223		H		1		UNL1		0.1834
36		H		0.5140		-1.0301		3.3710		H		1		UNL1		0.1540
37		H		1.6352		-2.3001		2.8389		H		1		UNL1		0.1571
38		H		1.3378		-3.0637		-2.4356		H		1		UNL1		0.1726
39		H		-0.3392		-3.4284		-2.8774		H		1		UNL1		0.1641
40		H		0.5440		-4.5032		-1.7934		H		1		UNL1		0.1492
41		H		2.0919		-3.9489		0.0987		H		1		UNL1		0.3308
42		H		4.4937		-4.0386		0.1190		H		1		UNL1		0.1315
43		H		6.5574		-2.6396		-0.1333		H		1		UNL1		0.1473
44		H		5.2941		1.4357		-0.2664		H		1		UNL1		0.3456
45		H		4.8091		3.6362		-0.2399		H		1		UNL1		0.1352
46		H		3.1541		5.4604		-0.2746		H		1		UNL1		0.1550
47		H		-0.0257		2.5607		-0.2209		H		1		UNL1		0.1586
48		H		1.6300		0.7311		-0.1859		H		1		UNL1		0.2021
49		H		-4.1614		-2.5022		-0.8144		H		1		UNL1		0.1305
50		H		-6.4325		-1.5950		-0.8789		H		1		UNL1		0.1318
51		H		-5.0664		1.9760		1.0895		H		1		UNL1		0.1451
52		H		-2.7642		1.0688		1.1270		H		1		UNL1		0.1368
53		H		-8.4199		-0.7805		0.0567		H		1		UNL1		0.1519
54		H		-8.0574		-0.0136		-1.5192		H		1		UNL1		0.1529
55		H		-9.0862		0.8305		-0.3285		H		1		UNL1		0.1720
@<TRIPOS>BOND
1		39		8		1
2		38		8		1
3		8		40		1
4		8		4		1
5		34		5		1
6		54		32		1
7		5		4		ar
8		5		6		ar
9		4		3		ar
10		50		27		1
11		49		26		1
12		32		55		1
13		32		53		1
14		32		31		1
15		27		26		ar
16		27		28		ar
17		26		25		ar
18		46		19		1
19		24		23		3
20		44		16		1
21		23		20		1
22		19		20		ar
23		19		18		ar
24		20		21		ar
25		45		18		1
26		18		17		ar
27		21		47		1
28		21		22		ar
29		17		22		ar
30		17		16		1
31		22		48		1
32		16		14		1
33		13		14		ar
34		13		12		ar
35		43		12		1
36		14		15		ar
37		12		11		ar
38		15		10		ar
39		11		10		ar
40		11		42		1
41		41		9		1
42		10		9		1
43		28		31		1
44		28		29		ar
45		25		6		1
46		25		30		ar
47		6		1		ar
48		3		9		1
49		3		2		ar
50		29		30		ar
51		29		51		1
52		30		52		1
53		1		2		ar
54		1		33		1
55		2		7		1
56		35		7		1
57		7		37		1
58		7		36		1

