@<TRIPOS>MOLECULE
JKJ-2019-EJMC-11-4f
 45 48 0 0 0
SMALL
MULLIKEN_CHARGES
****
Gaussian 16 #p B3LYP/6-31G* opt
@<TRIPOS>ATOM
1		F		-7.1197		0.8313		1.0864		F		1		UNL1		-0.2607
2		C		-6.6264		0.7882		-0.1739		C.3		1		UNL1		0.7817
3		F		-7.6242		0.3420		-0.9680		F		1		UNL1		-0.2697
4		F		-6.3634		2.0665		-0.5331		F		1		UNL1		-0.2736
5		C		-5.4060		-0.0872		-0.2643		C.ar		1		UNL1		-0.0061
6		C		-5.5513		-1.4663		-0.4348		C.ar		1		UNL1		-0.1600
7		C		-4.4084		-2.2622		-0.4565		C.ar		1		UNL1		-0.1500
8		C		-3.1338		-1.7146		-0.3114		C.ar		1		UNL1		-0.1389
9		C		-2.9942		-0.3277		-0.1473		C.ar		1		UNL1		0.3691
10		N		-1.7600		0.3333		-0.0073		N.pl3		1		UNL1		-0.7942
11		C		-0.4716		-0.1593		-0.0346		C.cat		1		UNL1		0.8228
12		N		-0.2117		-1.4270		-0.0476		N.2		1		UNL1		-0.6318
13		C		1.1289		-1.7958		-0.1432		C.ar		1		UNL1		0.2961
14		C		1.4297		-3.1487		-0.3790		C.ar		1		UNL1		-0.1733
15		C		2.7426		-3.5896		-0.4877		C.ar		1		UNL1		-0.1283
16		C		3.7842		-2.6685		-0.3632		C.ar		1		UNL1		-0.0789
17		CL		5.4519		-3.2143		-0.4993		Cl		1		UNL1		-0.0294
18		C		3.5223		-1.3223		-0.1295		C.ar		1		UNL1		-0.1803
19		C		2.2015		-0.8888		-0.0193		C.ar		1		UNL1		0.1021
20		C		1.8815		0.5751		0.2908		C.3		1		UNL1		-0.1132
21		C		2.7622		1.5177		-0.4118		C.1		1		UNL1		0.0941
22		C		3.4820		2.3090		-0.9783		C.1		1		UNL1		0.0350
23		C		4.3407		3.2391		-1.6594		C.3		1		UNL1		-0.2839
24		C		4.3496		4.7099		-1.2588		C.3		1		UNL1		-0.2987
25		C		5.5316		3.8505		-0.9305		C.3		1		UNL1		-0.2969
26		C		2.0177		0.8382		1.8254		C.3		1		UNL1		0.8569
27		F		1.2316		0.0023		2.5267		F		1		UNL1		-0.2550
28		F		1.6309		2.1012		2.1206		F		1		UNL1		-0.2712
29		F		3.2822		0.6819		2.2493		F		1		UNL1		-0.2503
30		N		0.4942		0.8279		-0.0983		N.pl3		1		UNL1		-0.6823
31		C		-4.1424		0.4794		-0.1235		C.ar		1		UNL1		-0.2471
32		H		-6.5376		-1.9016		-0.5527		H		1		UNL1		0.1513
33		H		-4.5046		-3.3363		-0.5880		H		1		UNL1		0.1432
34		H		-2.2493		-2.3348		-0.3176		H		1		UNL1		0.1927
35		H		-1.8431		1.3264		0.1579		H		1		UNL1		0.3303
36		H		0.6034		-3.8454		-0.4780		H		1		UNL1		0.1446
37		H		2.9612		-4.6364		-0.6708		H		1		UNL1		0.1545
38		H		4.3382		-0.6147		-0.0365		H		1		UNL1		0.1651
39		H		4.4861		3.0326		-2.7176		H		1		UNL1		0.1823
40		H		4.4378		5.4361		-2.0616		H		1		UNL1		0.1661
41		H		3.6909		5.0061		-0.4484		H		1		UNL1		0.1704
42		H		5.6815		3.5569		0.1035		H		1		UNL1		0.1759
43		H		6.4449		3.9755		-1.5046		H		1		UNL1		0.1678
44		H		0.2230		1.8013		-0.1141		H		1		UNL1		0.3303
45		H		-4.0511		1.5557		-0.0057		H		1		UNL1		0.1414
@<TRIPOS>BOND
1		39		23		1
2		40		24		1
3		23		24		1
4		23		22		1
5		23		25		1
6		43		25		1
7		24		25		1
8		24		41		1
9		22		21		3
10		3		2		1
11		25		42		1
12		37		15		1
13		33		7		1
14		32		6		1
15		4		2		1
16		17		16		1
17		15		14		ar
18		15		16		ar
19		36		14		1
20		7		6		ar
21		7		8		ar
22		6		5		ar
23		21		20		1
24		14		13		ar
25		16		18		ar
26		34		8		1
27		8		9		ar
28		5		2		1
29		5		31		ar
30		2		1		1
31		9		31		ar
32		9		10		1
33		13		12		1
34		13		19		ar
35		18		38		1
36		18		19		ar
37		31		45		1
38		44		30		1
39		30		11		1
40		30		20		1
41		12		11		2
42		11		10		1
43		19		20		1
44		10		35		1
45		20		26		1
46		26		28		1
47		26		29		1
48		26		27		1

