@<TRIPOS>MOLECULE
JKJ-2019-EJMC-11-4u
 48 51 0 0 0
SMALL
MULLIKEN_CHARGES
****
Gaussian 16 #p B3LYP/6-31G* opt
@<TRIPOS>ATOM
1		C		-5.7478		-2.5026		-0.4835		C.3		1		UNL1		-0.5280
2		C		-5.3264		-1.0548		-0.3699		C.ar		1		UNL1		0.1708
3		C		-6.2739		-0.0308		-0.3763		C.ar		1		UNL1		-0.2378
4		C		-5.8888		1.3142		-0.2720		C.ar		1		UNL1		0.1901
5		C		-6.9270		2.4128		-0.2757		C.3		1		UNL1		-0.5326
6		C		-4.5337		1.6123		-0.1644		C.ar		1		UNL1		-0.2731
7		C		-3.5643		0.5928		-0.1563		C.ar		1		UNL1		0.3754
8		N		-2.2210		1.0135		-0.0439		N.pl3		1		UNL1		-0.7935
9		C		-1.0485		0.2952		-0.0556		C.cat		1		UNL1		0.8175
10		N		-1.0203		-1.0000		-0.0345		N.2		1		UNL1		-0.6301
11		C		0.2303		-1.6062		-0.1094		C.ar		1		UNL1		0.2977
12		C		0.2832		-2.9979		-0.3067		C.ar		1		UNL1		-0.1740
13		C		1.4947		-3.6722		-0.3907		C.ar		1		UNL1		-0.1286
14		C		2.6858		-2.9524		-0.2798		C.ar		1		UNL1		-0.0797
15		CL		4.2283		-3.7957		-0.3853		Cl		1		UNL1		-0.0345
16		C		2.6713		-1.5752		-0.0843		C.ar		1		UNL1		-0.1806
17		C		1.4504		-0.9067		0.0006		C.ar		1		UNL1		0.1015
18		C		1.3982		0.5985		0.2685		C.3		1		UNL1		-0.1171
19		C		2.4437		1.3463		-0.4438		C.1		1		UNL1		0.0996
20		C		3.3015		1.9777		-1.0187		C.1		1		UNL1		0.0302
21		C		4.3225		2.7170		-1.7101		C.3		1		UNL1		-0.2828
22		C		4.6168		4.1624		-1.3263		C.3		1		UNL1		-0.2989
23		C		5.6111		3.0939		-0.9889		C.3		1		UNL1		-0.2970
24		C		1.5670		0.8746		1.7976		C.3		1		UNL1		0.8548
25		F		0.6392		0.2136		2.5117		F		1		UNL1		-0.2546
26		F		1.4108		2.1950		2.0556		F		1		UNL1		-0.2727
27		F		2.7801		0.5074		2.2423		F		1		UNL1		-0.2513
28		N		0.0851		1.0878		-0.1500		N.pl3		1		UNL1		-0.6777
29		C		-3.9636		-0.7422		-0.2560		C.ar		1		UNL1		-0.2129
30		H		-6.8374		-2.6013		-0.5163		H		1		UNL1		0.1514
31		H		-5.3815		-3.0915		0.3661		H		1		UNL1		0.1643
32		H		-5.3420		-2.9648		-1.3920		H		1		UNL1		0.1636
33		H		-7.3301		-0.2782		-0.4614		H		1		UNL1		0.1112
34		H		-7.5370		2.3822		-1.1869		H		1		UNL1		0.1630
35		H		-7.6147		2.3140		0.5735		H		1		UNL1		0.1641
36		H		-6.4656		3.4038		-0.2163		H		1		UNL1		0.1503
37		H		-4.2198		2.6528		-0.0870		H		1		UNL1		0.1065
38		H		-2.1177		2.0128		0.0609		H		1		UNL1		0.3256
39		H		-0.6556		-3.5353		-0.3957		H		1		UNL1		0.1436
40		H		1.5206		-4.7460		-0.5442		H		1		UNL1		0.1520
41		H		3.6014		-1.0246		-0.0020		H		1		UNL1		0.1631
42		H		4.4230		2.4751		-2.7662		H		1		UNL1		0.1812
43		H		4.8421		4.8495		-2.1367		H		1		UNL1		0.1646
44		H		4.0299		4.5891		-0.5189		H		1		UNL1		0.1699
45		H		5.7039		2.7880		0.0483		H		1		UNL1		0.1754
46		H		6.5301		3.0339		-1.5645		H		1		UNL1		0.1665
47		H		-0.0093		2.0943		-0.1511		H		1		UNL1		0.3270
48		H		-3.2132		-1.5203		-0.2372		H		1		UNL1		0.1767
@<TRIPOS>BOND
1		42		21		1
2		43		22		1
3		21		22		1
4		21		20		1
5		21		23		1
6		46		23		1
7		32		1		1
8		22		23		1
9		22		44		1
10		34		5		1
11		20		19		3
12		23		45		1
13		40		13		1
14		30		1		1
15		1		2		1
16		1		31		1
17		33		3		1
18		19		18		1
19		39		12		1
20		13		12		ar
21		13		14		ar
22		15		14		1
23		3		2		ar
24		3		4		ar
25		2		29		ar
26		12		11		ar
27		14		16		ar
28		5		4		1
29		5		36		1
30		5		35		1
31		4		6		ar
32		29		48		1
33		29		7		ar
34		6		7		ar
35		6		37		1
36		7		8		1
37		47		28		1
38		28		9		1
39		28		18		1
40		11		10		1
41		11		17		ar
42		16		41		1
43		16		17		ar
44		9		8		1
45		9		10		2
46		8		38		1
47		17		18		1
48		18		24		1
49		24		26		1
50		24		27		1
51		24		25		1

