@<TRIPOS>MOLECULE
JKJ-2019-EJMC-11-4m
 42 45 0 0 0
SMALL
MULLIKEN_CHARGES
****
Gaussian 16 #p B3LYP/6-31G* opt
@<TRIPOS>ATOM
1		F		4.7015		2.3297		-0.0375		F		1		UNL1		-0.3116
2		C		4.9690		1.0178		-0.3013		C.ar		1		UNL1		0.3014
3		C		6.2694		0.6207		-0.5451		C.ar		1		UNL1		-0.1967
4		C		6.5167		-0.7285		-0.8142		C.ar		1		UNL1		-0.1317
5		C		5.4542		-1.6316		-0.8271		C.ar		1		UNL1		-0.1431
6		C		4.1437		-1.2180		-0.5758		C.ar		1		UNL1		-0.1539
7		C		3.8798		0.1324		-0.3092		C.ar		1		UNL1		0.3040
8		N		2.6258		0.7012		-0.0406		N.pl3		1		UNL1		-0.7977
9		C		1.3776		0.1238		-0.0373		C.cat		1		UNL1		0.8228
10		N		1.2042		-1.1516		-0.1816		N.2		1		UNL1		-0.6337
11		C		-0.1107		-1.6091		-0.2146		C.ar		1		UNL1		0.2977
12		C		-0.3393		-2.9480		-0.5782		C.ar		1		UNL1		-0.1741
13		C		-1.6238		-3.4742		-0.6341		C.ar		1		UNL1		-0.1284
14		C		-2.7108		-2.6545		-0.3249		C.ar		1		UNL1		-0.0795
15		CL		-4.3442		-3.3085		-0.3929		Cl		1		UNL1		-0.0327
16		C		-2.5212		-1.3251		0.0388		C.ar		1		UNL1		-0.1824
17		C		-1.2284		-0.8053		0.0925		C.ar		1		UNL1		0.1012
18		C		-0.9836		0.6375		0.5392		C.3		1		UNL1		-0.1225
19		C		-1.9857		1.5762		0.0166		C.1		1		UNL1		0.1007
20		C		-2.8040		2.3601		-0.4090		C.1		1		UNL1		0.0327
21		C		-3.7784		3.2851		-0.9201		C.3		1		UNL1		-0.2844
22		C		-3.7877		3.6443		-2.4016		C.3		1		UNL1		-0.2980
23		C		-4.8867		2.7931		-1.8437		C.3		1		UNL1		-0.2969
24		C		-1.0060		0.7229		2.0996		C.3		1		UNL1		0.8563
25		F		-2.2160		0.4274		2.6002		F		1		UNL1		-0.2497
26		F		-0.6792		1.9725		2.5043		F		1		UNL1		-0.2703
27		F		-0.1092		-0.1219		2.6393		F		1		UNL1		-0.2553
28		N		0.3445		1.0390		0.0730		N.pl3		1		UNL1		-0.6774
29		H		7.0610		1.3624		-0.5226		H		1		UNL1		0.1478
30		H		7.5309		-1.0635		-1.0085		H		1		UNL1		0.1362
31		H		5.6397		-2.6820		-1.0324		H		1		UNL1		0.1361
32		H		3.3182		-1.9153		-0.5770		H		1		UNL1		0.1908
33		H		2.6730		1.6919		0.1510		H		1		UNL1		0.3392
34		H		0.5208		-3.5644		-0.8195		H		1		UNL1		0.1438
35		H		-1.7860		-4.5088		-0.9173		H		1		UNL1		0.1532
36		H		-3.3718		-0.6967		0.2771		H		1		UNL1		0.1648
37		H		-4.0515		4.0849		-0.2348		H		1		UNL1		0.1791
38		H		-3.0404		3.1698		-3.0296		H		1		UNL1		0.1737
39		H		-4.0039		4.6783		-2.6540		H		1		UNL1		0.1646
40		H		-4.8920		1.7359		-2.0894		H		1		UNL1		0.1772
41		H		-5.8701		3.2328		-1.7058		H		1		UNL1		0.1660
42		H		0.5645		2.0143		0.2259		H		1		UNL1		0.3307
@<TRIPOS>BOND
1		38		22		1
2		39		22		1
3		22		23		1
4		22		21		1
5		40		23		1
6		23		41		1
7		23		21		1
8		31		5		1
9		30		4		1
10		21		20		1
11		21		37		1
12		35		13		1
13		5		4		ar
14		5		6		ar
15		34		12		1
16		4		3		ar
17		13		12		ar
18		13		14		ar
19		12		11		ar
20		32		6		1
21		6		7		ar
22		3		29		1
23		3		2		ar
24		20		19		3
25		15		14		1
26		14		16		ar
27		7		2		ar
28		7		8		1
29		2		1		1
30		11		10		1
31		11		17		ar
32		10		9		2
33		8		9		1
34		8		33		1
35		9		28		1
36		19		18		1
37		16		17		ar
38		16		36		1
39		28		42		1
40		28		18		1
41		17		18		1
42		18		24		1
43		24		26		1
44		24		25		1
45		24		27		1

