@<TRIPOS>MOLECULE
JKJ-2019-EJMC-11-4a
 42 45 0 0 0
SMALL
MULLIKEN_CHARGES
****
Gaussian 16 #p B3LYP/6-31G* opt
@<TRIPOS>ATOM
1		F		-0.0766		0.0074		2.6460		F		1		UNL1		-0.2551
2		C		0.8713		-0.7744		2.0989		C.3		1		UNL1		0.8563
3		F		2.0610		-0.4058		2.5999		F		1		UNL1		-0.2499
4		F		0.6259		-2.0454		2.4960		F		1		UNL1		-0.2716
5		C		0.8404		-0.6803		0.5393		C.ar		1		UNL1		-0.1183
6		C		1.8982		-1.5515		0.0091		C.1		1		UNL1		0.0979
7		C		2.7628		-2.2799		-0.4235		C.1		1		UNL1		0.0323
8		C		3.7925		-3.1379		-0.9432		C.3		1		UNL1		-0.2845
9		C		3.8272		-3.4770		-2.4291		C.3		1		UNL1		-0.2982
10		C		4.8712		-2.5680		-1.8570		C.3		1		UNL1		-0.2968
11		N		-0.4600		-1.1607		0.0717		N.ar		1		UNL1		-0.6774
12		C		-1.5522		-0.3139		-0.0302		C.ar		1		UNL1		0.8169
13		N		-2.7602		-0.9728		-0.0330		N.pl3		1		UNL1		-0.7885
14		C		-4.0635		-0.5073		-0.3087		C.ar		1		UNL1		0.3604
15		C		-5.0903		-1.4661		-0.2750		C.ar		1		UNL1		-0.2031
16		C		-6.4075		-1.1024		-0.5362		C.ar		1		UNL1		-0.1323
17		C		-6.7249		0.2233		-0.8383		C.ar		1		UNL1		-0.1284
18		C		-5.7038		1.1731		-0.8703		C.ar		1		UNL1		-0.1451
19		C		-4.3780		0.8267		-0.6069		C.ar		1		UNL1		-0.1498
20		N		-1.4568		0.9708		-0.1663		N.ar		1		UNL1		-0.6310
21		C		-0.1735		1.5089		-0.2030		C.ar		1		UNL1		0.2973
22		C		-0.0303		2.8611		-0.5626		C.ar		1		UNL1		-0.1740
23		C		1.2182		3.4674		-0.6187		C.ar		1		UNL1		-0.1285
24		C		2.3555		2.7174		-0.3136		C.ar		1		UNL1		-0.0797
25		CL		3.9443		3.4741		-0.3814		Cl		1		UNL1		-0.0338
26		C		2.2511		1.3777		0.0461		C.ar		1		UNL1		-0.1824
27		C		0.9937		0.7771		0.0999		C.ar		1		UNL1		0.1006
28		H		4.1121		-3.9284		-0.2671		H		1		UNL1		0.1786
29		H		3.0541		-3.0405		-3.0536		H		1		UNL1		0.1736
30		H		4.1064		-4.4927		-2.6939		H		1		UNL1		0.1642
31		H		4.8129		-1.5094		-2.0893		H		1		UNL1		0.1776
32		H		5.8791		-2.9490		-1.7215		H		1		UNL1		0.1659
33		H		-0.6088		-2.1538		0.1897		H		1		UNL1		0.3277
34		H		-2.7212		-1.9540		0.2035		H		1		UNL1		0.3261
35		H		-4.8523		-2.5035		-0.0445		H		1		UNL1		0.1168
36		H		-7.1855		-1.8603		-0.5043		H		1		UNL1		0.1302
37		H		-7.7523		0.5100		-1.0429		H		1		UNL1		0.1274
38		H		-5.9357		2.2098		-1.1003		H		1		UNL1		0.1325
39		H		-3.5890		1.5645		-0.6208		H		1		UNL1		0.1849
40		H		-0.9283		3.4226		-0.7999		H		1		UNL1		0.1446
41		H		1.3141		4.5112		-0.8989		H		1		UNL1		0.1528
42		H		3.1401		0.8037		0.2816		H		1		UNL1		0.1641
@<TRIPOS>BOND
1		29		9		1
2		30		9		1
3		9		10		1
4		9		8		1
5		31		10		1
6		10		32		1
7		10		8		1
8		38		18		1
9		37		17		1
10		8		7		1
11		8		28		1
12		41		23		1
13		18		17		ar
14		18		19		ar
15		17		16		ar
16		40		22		1
17		39		19		1
18		23		22		ar
19		23		24		ar
20		19		14		ar
21		22		21		ar
22		16		36		1
23		16		15		ar
24		7		6		3
25		25		24		1
26		24		26		ar
27		14		15		ar
28		14		13		1
29		15		35		1
30		21		20		ar
31		21		27		ar
32		20		12		ar
33		13		12		1
34		13		34		1
35		12		11		ar
36		6		5		1
37		26		27		ar
38		26		42		1
39		11		33		1
40		11		5		ar
41		27		5		ar
42		5		2		1
43		2		4		1
44		2		3		1
45		2		1		1

