@<TRIPOS>MOLECULE
JKJ-2019-EJMC-11-4k
 46 49 0 0 0
SMALL
MULLIKEN_CHARGES
****
Gaussian 16 #p B3LYP/6-31G* opt
@<TRIPOS>ATOM
1		C		-7.0459		1.0978		1.1905		C.3		1		UNL1		-0.2177
2		O		-6.7506		0.5243		-0.0736		O.3		1		UNL1		-0.5070
3		C		-5.5184		-0.0313		-0.2577		C.ar		1		UNL1		0.3828
4		C		-5.2857		-0.5953		-1.5217		C.ar		1		UNL1		-0.1787
5		C		-4.0579		-1.1682		-1.8183		C.ar		1		UNL1		-0.1670
6		C		-3.0383		-1.2220		-0.8534		C.ar		1		UNL1		0.2909
7		N		-1.8160		-1.8597		-1.1845		N.pl3		1		UNL1		-0.7446
8		C		-0.5402		-1.5126		-0.8087		C.cat		1		UNL1		0.7539
9		N		0.3936		-2.4121		-0.9021		N.2		1		UNL1		-0.6280
10		C		1.6887		-1.9937		-0.6247		C.ar		1		UNL1		0.2881
11		C		2.7513		-2.8676		-0.9218		C.ar		1		UNL1		-0.1755
12		C		4.0711		-2.5178		-0.6675		C.ar		1		UNL1		-0.1275
13		C		4.3510		-1.2695		-0.1077		C.ar		1		UNL1		-0.0818
14		CL		6.0218		-0.8134		0.2186		Cl		1		UNL1		-0.0393
15		C		3.3269		-0.3795		0.1989		C.ar		1		UNL1		-0.1805
16		C		2.0039		-0.7387		-0.0578		C.ar		1		UNL1		0.0949
17		C		0.8520		0.2006		0.3115		C.3		1		UNL1		-0.1133
18		C		1.1549		1.6111		0.0327		C.1		1		UNL1		0.0954
19		C		1.3940		2.7753		-0.1967		C.1		1		UNL1		0.0320
20		C		1.6855		4.1552		-0.4754		C.3		1		UNL1		-0.2837
21		C		3.0321		4.5447		-1.0740		C.3		1		UNL1		-0.2972
22		C		1.7975		4.6359		-1.9176		C.3		1		UNL1		-0.2977
23		C		0.5224		0.0682		1.8338		C.3		1		UNL1		0.8694
24		F		1.5451		0.4587		2.6096		F		1		UNL1		-0.2496
25		F		-0.5557		0.8263		2.1518		F		1		UNL1		-0.2747
26		F		0.2154		-1.2049		2.1499		F		1		UNL1		-0.2618
27		N		-0.3299		-0.2039		-0.4470		N.pl3		1		UNL1		-0.6580
28		C		-3.2831		-0.6818		0.4145		C.ar		1		UNL1		-0.1828
29		C		-4.5063		-0.0720		0.7072		C.ar		1		UNL1		-0.2086
30		H		-8.0668		1.4763		1.1159		H		1		UNL1		0.1734
31		H		-6.9937		0.3516		1.9943		H		1		UNL1		0.1552
32		H		-6.3673		1.9287		1.4251		H		1		UNL1		0.1536
33		H		-6.0791		-0.5572		-2.2614		H		1		UNL1		0.1463
34		H		-3.8756		-1.5789		-2.8077		H		1		UNL1		0.1392
35		H		-1.8524		-2.7793		-1.6055		H		1		UNL1		0.3472
36		H		2.5072		-3.8295		-1.3613		H		1		UNL1		0.1410
37		H		4.8800		-3.2017		-0.9027		H		1		UNL1		0.1501
38		H		3.5553		0.5873		0.6331		H		1		UNL1		0.1616
39		H		1.2568		4.8640		0.2301		H		1		UNL1		0.1773
40		H		3.7335		3.7415		-1.2761		H		1		UNL1		0.1775
41		H		3.4842		5.4618		-0.7079		H		1		UNL1		0.1646
42		H		1.3881		5.6168		-2.1409		H		1		UNL1		0.1633
43		H		1.6536		3.8949		-2.6975		H		1		UNL1		0.1739
44		H		-1.1145		0.4331		-0.4316		H		1		UNL1		0.3433
45		H		-2.5249		-0.7436		1.1881		H		1		UNL1		0.1578
46		H		-4.6597		0.3427		1.6967		H		1		UNL1		0.1422
@<TRIPOS>BOND
1		34		5		1
2		43		22		1
3		33		4		1
4		42		22		1
5		22		21		1
6		22		20		1
7		5		4		ar
8		5		6		ar
9		35		7		1
10		4		3		ar
11		36		11		1
12		40		21		1
13		7		6		1
14		7		8		1
15		21		41		1
16		21		20		1
17		11		12		ar
18		11		10		ar
19		37		12		1
20		9		8		2
21		9		10		1
22		6		28		ar
23		8		27		1
24		12		13		ar
25		10		16		ar
26		20		19		1
27		20		39		1
28		27		44		1
29		27		17		1
30		3		2		1
31		3		29		ar
32		19		18		3
33		13		15		ar
34		13		14		1
35		2		1		1
36		16		15		ar
37		16		17		1
38		18		17		1
39		15		38		1
40		17		23		1
41		28		29		ar
42		28		45		1
43		29		46		1
44		30		1		1
45		1		32		1
46		1		31		1
47		23		26		1
48		23		25		1
49		23		24		1

