@<TRIPOS>MOLECULE
JKJ-2019-EJMC-11-4l
 42 45 0 0 0
SMALL
MULLIKEN_CHARGES
****
Gaussian 16 #p B3LYP/6-31G* opt
@<TRIPOS>ATOM
1		F		-5.8971		-1.9750		-0.9412		F		1		UNL1		-0.2990
2		C		-5.5262		-0.7028		-0.6822		C.ar		1		UNL1		0.3848
3		C		-6.5048		0.2825		-0.6497		C.ar		1		UNL1		-0.2016
4		C		-6.0950		1.5885		-0.3765		C.ar		1		UNL1		-0.1327
5		C		-4.7545		1.8831		-0.1497		C.ar		1		UNL1		-0.2043
6		C		-3.7857		0.8636		-0.1897		C.ar		1		UNL1		0.3679
7		N		-2.4526		1.2487		0.0446		N.pl3		1		UNL1		-0.7920
8		C		-1.2915		0.5053		0.0454		C.cat		1		UNL1		0.8201
9		N		-1.2919		-0.7859		-0.0431		N.2		1		UNL1		-0.6314
10		C		-0.0508		-1.4165		-0.0929		C.ar		1		UNL1		0.2966
11		C		-0.0150		-2.7875		-0.4031		C.ar		1		UNL1		-0.1738
12		C		1.1857		-3.4829		-0.4703		C.ar		1		UNL1		-0.1287
13		C		2.3815		-2.8048		-0.2266		C.ar		1		UNL1		-0.0791
14		CL		3.9102		-3.6743		-0.3091		Cl		1		UNL1		-0.0317
15		C		2.3827		-1.4487		0.0835		C.ar		1		UNL1		-0.1828
16		C		1.1727		-0.7584		0.1493		C.ar		1		UNL1		0.1010
17		C		1.1364		0.7216		0.5363		C.3		1		UNL1		-0.1161
18		C		2.2336		1.4954		-0.0600		C.1		1		UNL1		0.0952
19		C		3.1319		2.1444		-0.5470		C.1		1		UNL1		0.0344
20		C		4.2009		2.9079		-1.1308		C.3		1		UNL1		-0.2849
21		C		4.2176		3.1764		-2.6315		C.3		1		UNL1		-0.2982
22		C		5.2152		2.2271		-2.0425		C.3		1		UNL1		-0.2966
23		C		1.2247		0.8705		2.0894		C.3		1		UNL1		0.8571
24		F		1.0840		2.1694		2.4438		F		1		UNL1		-0.2713
25		F		0.2409		0.1803		2.6936		F		1		UNL1		-0.2552
26		F		2.4002		0.4343		2.5686		F		1		UNL1		-0.2494
27		N		-0.1428		1.2756		0.0919		N.pl3		1		UNL1		-0.6797
28		C		-4.1781		-0.4544		-0.4578		C.ar		1		UNL1		-0.2363
29		H		-7.5427		0.0258		-0.8298		H		1		UNL1		0.1435
30		H		-6.8300		2.3875		-0.3417		H		1		UNL1		0.1388
31		H		-4.4533		2.9079		0.0573		H		1		UNL1		0.1202
32		H		-2.3438		2.2283		0.2652		H		1		UNL1		0.3285
33		H		-0.9570		-3.2920		-0.5931		H		1		UNL1		0.1485
34		H		1.1995		-4.5405		-0.7118		H		1		UNL1		0.1545
35		H		3.3167		-0.9315		0.2717		H		1		UNL1		0.1647
36		H		4.5892		3.7051		-0.5002		H		1		UNL1		0.1791
37		H		4.5549		4.1584		-2.9501		H		1		UNL1		0.1648
38		H		3.4013		2.7642		-3.2163		H		1		UNL1		0.1737
39		H		5.0822		1.1653		-2.2236		H		1		UNL1		0.1777
40		H		6.2489		2.5464		-1.9488		H		1		UNL1		0.1665
41		H		-0.2147		2.2820		0.1541		H		1		UNL1		0.3288
42		H		-3.4536		-1.2547		-0.4787		H		1		UNL1		0.1983
@<TRIPOS>BOND
1		38		21		1
2		37		21		1
3		21		22		1
4		21		20		1
5		39		22		1
6		22		40		1
7		22		20		1
8		20		19		1
9		20		36		1
10		1		2		1
11		29		3		1
12		34		12		1
13		2		3		ar
14		2		28		ar
15		3		4		ar
16		33		11		1
17		19		18		3
18		42		28		1
19		12		11		ar
20		12		13		ar
21		28		6		ar
22		11		10		ar
23		4		30		1
24		4		5		ar
25		14		13		1
26		13		15		ar
27		6		5		ar
28		6		7		1
29		5		31		1
30		10		9		1
31		10		16		ar
32		18		17		1
33		9		8		2
34		7		8		1
35		7		32		1
36		8		27		1
37		15		16		ar
38		15		35		1
39		27		41		1
40		27		17		1
41		16		17		1
42		17		23		1
43		23		24		1
44		23		26		1
45		23		25		1

