@<TRIPOS>MOLECULE
JKJ-2019-EJMC-11-4t
 48 51 0 0 0
SMALL
MULLIKEN_CHARGES
****
Gaussian 16 #p B3LYP/6-31G* opt
@<TRIPOS>ATOM
1		C		7.5784		-0.9857		-0.7850		C.3		1		UNL1		-0.5340
2		C		6.1612		-0.5171		-0.5559		C.ar		1		UNL1		0.1380
3		C		5.0946		-1.4176		-0.6104		C.ar		1		UNL1		-0.2048
4		C		3.7690		-1.0358		-0.4029		C.ar		1		UNL1		-0.1501
5		C		3.4898		0.3078		-0.1336		C.ar		1		UNL1		0.3728
6		N		2.1964		0.8284		0.0903		N.pl3		1		UNL1		-0.7928
7		C		0.9659		0.2172		0.0532		C.cat		1		UNL1		0.8160
8		N		0.8259		-1.0638		-0.0838		N.2		1		UNL1		-0.6311
9		C		-0.4746		-1.5527		-0.1603		C.ar		1		UNL1		0.2979
10		C		-0.6580		-2.8998		-0.5216		C.ar		1		UNL1		-0.1743
11		C		-1.9261		-3.4588		-0.6158		C.ar		1		UNL1		-0.1286
12		C		-3.0434		-2.6654		-0.3482		C.ar		1		UNL1		-0.0799
13		CL		-4.6570		-3.3619		-0.4646		Cl		1		UNL1		-0.0353
14		C		-2.8996		-1.3295		0.0119		C.ar		1		UNL1		-0.1825
15		C		-1.6227		-0.7766		0.1039		C.ar		1		UNL1		0.1005
16		C		-1.4279		0.6753		0.5448		C.3		1		UNL1		-0.1198
17		C		-2.4366		1.5838		-0.0178		C.1		1		UNL1		0.0998
18		C		-3.2606		2.3423		-0.4770		C.1		1		UNL1		0.0307
19		C		-4.2423		3.2361		-1.0287		C.3		1		UNL1		-0.2843
20		C		-4.2218		3.5701		-2.5159		C.3		1		UNL1		-0.2982
21		C		-5.3150		2.7030		-1.9711		C.3		1		UNL1		-0.2968
22		C		-1.5015		0.7751		2.1025		C.3		1		UNL1		0.8557
23		F		-0.6010		-0.0403		2.6796		F		1		UNL1		-0.2551
24		F		-1.2196		2.0372		2.5045		F		1		UNL1		-0.2720
25		F		-2.7189		0.4540		2.5690		F		1		UNL1		-0.2501
26		N		-0.0974		1.1055		0.1142		N.pl3		1		UNL1		-0.6766
27		C		4.5519		1.2248		-0.0753		C.ar		1		UNL1		-0.2722
28		C		5.8751		0.8372		-0.2792		C.ar		1		UNL1		0.1351
29		C		6.9807		1.8639		-0.2042		C.3		1		UNL1		-0.5342
30		H		7.6078		-2.0614		-0.9840		H		1		UNL1		0.1557
31		H		8.2203		-0.7919		0.0848		H		1		UNL1		0.1571
32		H		8.0457		-0.4775		-1.6391		H		1		UNL1		0.1566
33		H		5.3024		-2.4647		-0.8195		H		1		UNL1		0.1234
34		H		2.9624		-1.7533		-0.4400		H		1		UNL1		0.1809
35		H		2.1880		1.8140		0.3111		H		1		UNL1		0.3256
36		H		0.2251		-3.4955		-0.7293		H		1		UNL1		0.1441
37		H		-2.0526		-4.4991		-0.8967		H		1		UNL1		0.1521
38		H		-3.7733		-0.7215		0.2179		H		1		UNL1		0.1635
39		H		-4.5512		4.0408		-0.3646		H		1		UNL1		0.1782
40		H		-4.4553		4.5944		-2.7919		H		1		UNL1		0.1638
41		H		-3.4482		3.1025		-3.1167		H		1		UNL1		0.1736
42		H		-5.2897		1.6421		-2.1984		H		1		UNL1		0.1775
43		H		-6.3115		3.1219		-1.8659		H		1		UNL1		0.1655
44		H		0.0871		2.0907		0.2481		H		1		UNL1		0.3269
45		H		4.3393		2.2731		0.1338		H		1		UNL1		0.1077
46		H		6.5853		2.8600		0.0176		H		1		UNL1		0.1511
47		H		7.7120		1.6145		0.5755		H		1		UNL1		0.1619
48		H		7.5378		1.9287		-1.1478		H		1		UNL1		0.1613
@<TRIPOS>BOND
1		41		20		1
2		40		20		1
3		20		21		1
4		20		19		1
5		42		21		1
6		21		43		1
7		21		19		1
8		32		1		1
9		48		29		1
10		19		18		1
11		19		39		1
12		30		1		1
13		37		11		1
14		33		3		1
15		1		2		1
16		1		31		1
17		36		10		1
18		11		10		ar
19		11		12		ar
20		3		2		ar
21		3		4		ar
22		2		28		ar
23		10		9		ar
24		18		17		3
25		13		12		1
26		34		4		1
27		4		5		ar
28		12		14		ar
29		28		29		1
30		28		27		ar
31		29		46		1
32		29		47		1
33		9		8		1
34		9		15		ar
35		5		27		ar
36		5		6		1
37		8		7		2
38		27		45		1
39		17		16		1
40		14		15		ar
41		14		38		1
42		7		6		1
43		7		26		1
44		6		35		1
45		15		16		1
46		26		44		1
47		26		16		1
48		16		22		1
49		22		24		1
50		22		25		1
51		22		23		1

