@<TRIPOS>MOLECULE
JKJ-2018-EJMC-726-3-4j
 54 57 0 0 0
SMALL
MULLIKEN_CHARGES

@<TRIPOS>ATOM
1		C		-1.6757		-2.1467		-0.9139		C.ar		1		UNL1		-0.2744
2		C		-0.3764		-2.6562		-0.8944		C.ar		1		UNL1		0.1905
3		C		0.4413		-2.3829		0.2185		C.ar		1		UNL1		0.1692
4		C		-0.0399		-1.6273		1.3042		C.ar		1		UNL1		0.2024
5		C		-1.3424		-1.1251		1.2346		C.ar		1		UNL1		-0.2785
6		C		-2.1810		-1.3681		0.1375		C.ar		1		UNL1		0.1318
7		C		0.1431		-3.4702		-2.0564		C.3		1		UNL1		-0.5394
8		C		0.8058		-1.3739		2.5269		C.3		1		UNL1		-0.5343
9		N		1.7585		-2.9387		0.2568		N.pl3		1		UNL1		-0.7633
10		C		2.9305		-2.2391		0.1213		C.ar		1		UNL1		0.5743
11		C		4.1704		-2.9144		0.0816		C.ar		1		UNL1		-0.2263
12		C		5.2948		-2.1176		-0.0484		C.ar		1		UNL1		0.0666
13		N		5.2566		-0.7819		-0.1345		N.ar		1		UNL1		-0.5075
14		C		4.0213		-0.2493		-0.0860		C.ar		1		UNL1		0.6892
15		N		2.8604		-0.9018		0.0358		N.ar		1		UNL1		-0.5683
16		N		4.0222		1.1302		-0.1762		N.pl3		1		UNL1		-0.7690
17		C		2.9998		2.0760		-0.1935		C.ar		1		UNL1		0.3812
18		C		3.3898		3.4318		-0.2174		C.ar		1		UNL1		-0.2043
19		C		2.4474		4.4458		-0.2424		C.ar		1		UNL1		-0.1413
20		C		1.0752		4.1366		-0.2448		C.ar		1		UNL1		0.1300
21		C		0.6859		2.7870		-0.2251		C.ar		1		UNL1		-0.1611
22		C		1.6262		1.7650		-0.1999		C.ar		1		UNL1		-0.1680
23		C		0.0948		5.1780		-0.2657		C.1		1		UNL1		0.2251
24		N		-0.7037		6.0254		-0.2806		N.1		1		UNL1		-0.4889
25		C		-3.5603		-0.8219		0.0913		C.ar		1		UNL1		0.0818
26		C		-3.8566		0.4489		0.6113		C.ar		1		UNL1		-0.1750
27		C		-5.1508		0.9612		0.5659		C.ar		1		UNL1		-0.1850
28		C		-6.2026		0.2299		-0.0014		C.ar		1		UNL1		0.1816
29		C		-5.9094		-1.0398		-0.5153		C.ar		1		UNL1		-0.1857
30		C		-4.6165		-1.5565		-0.4722		C.ar		1		UNL1		-0.1713
31		C		-7.5983		0.8021		-0.0794		C.3		1		UNL1		-0.5305
32		H		-2.2957		-2.3282		-1.7876		H		1		UNL1		0.1288
33		H		-1.7271		-0.5630		2.0812		H		1		UNL1		0.1311
34		H		0.3110		-4.5217		-1.7827		H		1		UNL1		0.1497
35		H		1.0971		-3.0791		-2.4281		H		1		UNL1		0.1727
36		H		-0.5714		-3.4643		-2.8844		H		1		UNL1		0.1650
37		H		1.5702		-0.6148		2.3258		H		1		UNL1		0.1836
38		H		1.3308		-2.2819		2.8433		H		1		UNL1		0.1576
39		H		0.1884		-1.0241		3.3596		H		1		UNL1		0.1542
40		H		1.8348		-3.9369		0.1118		H		1		UNL1		0.3310
41		H		4.2398		-3.9945		0.1554		H		1		UNL1		0.1320
42		H		6.2857		-2.5675		-0.0854		H		1		UNL1		0.1477
43		H		4.9661		1.4905		-0.2388		H		1		UNL1		0.3458
44		H		4.4478		3.6842		-0.2136		H		1		UNL1		0.1355
45		H		2.7658		5.4832		-0.2587		H		1		UNL1		0.1552
46		H		-0.3702		2.5357		-0.2327		H		1		UNL1		0.1586
47		H		1.3122		0.7316		-0.1872		H		1		UNL1		0.2021
48		H		-3.0603		1.0532		1.0374		H		1		UNL1		0.1341
49		H		-5.3454		1.9520		0.9706		H		1		UNL1		0.1289
50		H		-6.7080		-1.6389		-0.9477		H		1		UNL1		0.1224
51		H		-4.4292		-2.5565		-0.8539		H		1		UNL1		0.1285
52		H		-7.7381		1.3858		-0.9993		H		1		UNL1		0.1686
53		H		-7.8054		1.4716		0.7623		H		1		UNL1		0.1593
54		H		-8.3564		0.0117		-0.0785		H		1		UNL1		0.1564
@<TRIPOS>BOND
1		36		7		1
2		35		7		1
3		7		34		1
4		7		2		1
5		32		1		1
6		52		31		1
7		50		29		1
8		1		2		ar
9		1		6		ar
10		2		3		ar
11		51		30		1
12		29		30		ar
13		29		28		ar
14		30		25		ar
15		24		23		3
16		23		20		1
17		45		19		1
18		20		19		ar
19		20		21		ar
20		19		18		ar
21		43		16		1
22		46		21		1
23		21		22		ar
24		18		44		1
25		18		17		ar
26		22		17		ar
27		22		47		1
28		17		16		1
29		16		14		1
30		13		14		ar
31		13		12		ar
32		14		15		ar
33		42		12		1
34		31		54		1
35		31		28		1
36		31		53		1
37		12		11		ar
38		28		27		ar
39		15		10		ar
40		11		10		ar
41		11		41		1
42		25		6		1
43		25		26		ar
44		40		9		1
45		10		9		1
46		6		5		ar
47		3		9		1
48		3		4		ar
49		27		26		ar
50		27		49		1
51		26		48		1
52		5		4		ar
53		5		33		1
54		4		8		1
55		37		8		1
56		8		38		1
57		8		39		1

