@<TRIPOS>MOLECULE
JKJ-2019-EJMC-11-4e
 44 47 0 0 0
SMALL
MULLIKEN_CHARGES
****
Gaussian 16 #p B3LYP/6-31G* opt
@<TRIPOS>ATOM
1		O		-7.5684		0.2686		0.2140		O.2		1		UNL1		-0.3872
2		N		-6.6318		-0.5207		0.3221		N.pl3		1		UNL1		0.3817
3		O		-6.7024		-1.6243		0.8608		O.2		1		UNL1		-0.3905
4		C		-5.3284		-0.1128		-0.2378		C.ar		1		UNL1		0.2757
5		C		-5.2251		1.1235		-0.8719		C.ar		1		UNL1		-0.1509
6		C		-3.9854		1.4760		-1.3993		C.ar		1		UNL1		-0.1476
7		C		-2.8882		0.6195		-1.2990		C.ar		1		UNL1		-0.1765
8		C		-3.0054		-0.6116		-0.6254		C.ar		1		UNL1		0.3440
9		N		-1.9448		-1.5186		-0.5024		N.pl3		1		UNL1		-0.7567
10		C		-0.5786		-1.3108		-0.4241		C.cat		1		UNL1		0.7538
11		N		0.1807		-2.3503		-0.5601		N.2		1		UNL1		-0.6153
12		C		1.5550		-2.1395		-0.4927		C.ar		1		UNL1		0.2862
13		C		2.4083		-3.2084		-0.8157		C.ar		1		UNL1		-0.1721
14		C		3.7898		-3.0606		-0.7957		C.ar		1		UNL1		-0.1273
15		C		4.3389		-1.8238		-0.4530		C.ar		1		UNL1		-0.0799
16		CL		6.0870		-1.6218		-0.4299		Cl		1		UNL1		-0.0289
17		C		3.5221		-0.7449		-0.1271		C.ar		1		UNL1		-0.1786
18		C		2.1371		-0.9025		-0.1465		C.ar		1		UNL1		0.1003
19		C		1.2158		0.2416		0.2805		C.3		1		UNL1		-0.1363
20		C		1.6696		1.5560		-0.1943		C.1		1		UNL1		0.1130
21		C		2.0399		2.6457		-0.5696		C.1		1		UNL1		0.0338
22		C		2.4856		3.9349		-1.0234		C.3		1		UNL1		-0.2841
23		C		1.8470		5.2051		-0.4733		C.3		1		UNL1		-0.2989
24		C		3.2482		4.8543		-0.0768		C.3		1		UNL1		-0.2969
25		C		1.1352		0.2931		1.8411		C.3		1		UNL1		0.8531
26		F		2.3161		0.6093		2.3934		F		1		UNL1		-0.2482
27		F		0.7377		-0.8900		2.3412		F		1		UNL1		-0.2539
28		F		0.2293		1.2218		2.2308		F		1		UNL1		-0.2689
29		N		-0.1376		-0.0197		-0.2297		N.pl3		1		UNL1		-0.6636
30		C		-4.2516		-0.9777		-0.0944		C.ar		1		UNL1		-0.2133
31		H		-6.0922		1.7662		-0.9500		H		1		UNL1		0.1852
32		H		-3.8730		2.4217		-1.9207		H		1		UNL1		0.1564
33		H		-1.9511		0.8895		-1.7732		H		1		UNL1		0.1789
34		H		-2.1672		-2.5061		-0.5062		H		1		UNL1		0.3564
35		H		1.9550		-4.1560		-1.0885		H		1		UNL1		0.1462
36		H		4.4389		-3.8925		-1.0479		H		1		UNL1		0.1550
37		H		3.9594		0.2113		0.1365		H		1		UNL1		0.1656
38		H		2.7913		3.9689		-2.0671		H		1		UNL1		0.1814
39		H		1.0604		5.0838		0.2648		H		1		UNL1		0.1708
40		H		1.6905		6.0192		-1.1750		H		1		UNL1		0.1654
41		H		4.0702		5.4222		-0.5024		H		1		UNL1		0.1676
42		H		3.4207		4.4915		0.9315		H		1		UNL1		0.1759
43		H		-0.8207		0.6652		0.0697		H		1		UNL1		0.3414
44		H		-4.3860		-1.9160		0.4305		H		1		UNL1		0.1877
@<TRIPOS>BOND
1		38		22		1
2		32		6		1
3		33		7		1
4		6		7		ar
5		6		5		ar
6		7		8		ar
7		40		23		1
8		35		13		1
9		36		14		1
10		22		21		1
11		22		23		1
12		22		24		1
13		31		5		1
14		5		4		ar
15		13		14		ar
16		13		12		ar
17		14		15		ar
18		8		9		1
19		8		30		ar
20		21		20		3
21		11		12		1
22		11		10		2
23		34		9		1
24		9		10		1
25		41		24		1
26		12		18		ar
27		23		24		1
28		23		39		1
29		15		16		1
30		15		17		ar
31		10		29		1
32		4		30		ar
33		4		2		1
34		29		43		1
35		29		19		1
36		20		19		1
37		18		17		ar
38		18		19		1
39		17		37		1
40		30		44		1
41		24		42		1
42		1		2		2
43		19		25		1
44		2		3		2
45		25		28		1
46		25		27		1
47		25		26		1

