@<TRIPOS>MOLECULE
LJ-2006-CPB-1249-24
 156 158 0 0 0
SMALL
MULLIKEN_CHARGES
****
Gaussian public/home/users/ssctmf048t/g16/g16 #p B3LYP/6-31G* opt
@<TRIPOS>ATOM
1		C		18.7616		0.5777		4.5957		C.3		1		UNL1		-0.4861
2		C		17.8809		-0.5946		4.2642		C.2		1		UNL1		-0.1597
3		C		17.7928		-1.2832		3.1147		C.2		1		UNL1		0.1999
4		C		18.6280		-1.0110		1.8868		C.3		1		UNL1		-0.5242
5		C		16.8013		-2.4290		3.0028		C.3		1		UNL1		-0.3346
6		C		15.4426		-2.0697		2.3390		C.3		1		UNL1		-0.2924
7		C		15.5027		-1.8121		0.8572		C.2		1		UNL1		-0.1571
8		C		15.0819		-0.7409		0.1639		C.2		1		UNL1		0.1787
9		C		14.4887		0.5051		0.7774		C.3		1		UNL1		-0.5225
10		C		15.1931		-0.7337		-1.3540		C.3		1		UNL1		-0.3251
11		C		14.0065		-1.4085		-2.0994		C.3		1		UNL1		-0.2975
12		C		12.6521		-0.8150		-1.8136		C.2		1		UNL1		-0.1713
13		C		11.8883		-0.0483		-2.6103		C.2		1		UNL1		0.1889
14		C		12.2811		0.3968		-3.9997		C.3		1		UNL1		-0.5211
15		C		10.5303		0.4295		-2.1318		C.3		1		UNL1		-0.3248
16		C		9.3344		-0.2553		-2.8434		C.3		1		UNL1		-0.3017
17		C		8.0099		0.2906		-2.3817		C.2		1		UNL1		-0.1692
18		C		7.0097		-0.3428		-1.7475		C.2		1		UNL1		0.1919
19		C		7.0305		-1.8030		-1.3600		C.3		1		UNL1		-0.5221
20		C		5.7484		0.4131		-1.3749		C.3		1		UNL1		-0.3255
21		C		4.4983		-0.0002		-2.1947		C.3		1		UNL1		-0.3042
22		C		3.2622		0.7397		-1.7551		C.2		1		UNL1		-0.1633
23		C		2.5110		1.6057		-2.4532		C.2		1		UNL1		0.1690
24		C		2.7755		2.0004		-3.8883		C.3		1		UNL1		-0.5158
25		C		1.2851		2.2874		-1.8690		C.3		1		UNL1		-0.3136
26		C		0.9164		1.9654		-0.4094		C.3		1		UNL1		-0.3138
27		C		-0.2721		2.7662		0.0573		C.2		1		UNL1		-0.1670
28		C		-1.4831		2.3260		0.4326		C.2		1		UNL1		0.1695
29		C		-1.8904		0.8705		0.4646		C.3		1		UNL1		-0.5206
30		C		-2.5962		3.2610		0.8751		C.3		1		UNL1		-0.3161
31		C		-2.2985		4.7720		0.8829		C.3		1		UNL1		-0.3115
32		C		-3.4665		5.5698		1.3998		C.2		1		UNL1		-0.1758
33		C		-4.2504		6.4391		0.7420		C.2		1		UNL1		0.2149
34		C		-4.0818		6.8128		-0.7116		C.3		1		UNL1		-0.5269
35		C		-5.3911		7.1328		1.4610		C.3		1		UNL1		-0.3351
36		C		-6.8048		6.8104		0.9110		C.3		1		UNL1		-0.3092
37		C		-7.1668		5.3546		1.0466		C.2		1		UNL1		-0.1437
38		C		-7.6648		4.5213		0.1204		C.2		1		UNL1		0.1636
39		C		-7.9765		4.9153		-1.3054		C.3		1		UNL1		-0.5167
40		C		-7.9807		3.0641		0.4113		C.3		1		UNL1		-0.3226
41		C		-7.6905		2.5464		1.8325		C.3		1		UNL1		-0.3177
42		C		-8.0705		1.0981		1.9762		C.2		1		UNL1		-0.1709
43		C		-7.2714		0.0462		2.2092		C.2		1		UNL1		0.2068
44		C		-5.7760		0.0987		2.3971		C.3		1		UNL1		-0.5400
45		C		-7.9002		-1.3264		2.3656		C.3		1		UNL1		-0.2642
46		N		-7.2234		-2.4070		1.6027		N.ar		1		UNL1		-0.5293
47		C		-7.3615		-2.5570		0.2255		C.ar		1		UNL1		0.2152
48		C		-8.1987		-1.5011		-0.4894		C.2		1		UNL1		0.3383
49		O		-7.5578		-0.6306		-1.0630		O.2		1		UNL1		-0.4538
50		C		-9.6990		-1.4963		-0.5073		C.ar		1		UNL1		-0.0008
51		C		-10.2457		-0.3328		-1.0400		C.ar		1		UNL1		-0.1616
52		C		-11.6326		-0.1222		-1.1161		C.ar		1		UNL1		-0.1367
53		C		-12.4920		-1.0909		-0.6508		C.ar		1		UNL1		-0.1752
54		C		-11.9990		-2.3052		-0.1093		C.ar		1		UNL1		0.1306
55		C		-12.9078		-3.2957		0.3516		C.ar		1		UNL1		-0.1919
56		C		-12.4588		-4.4881		0.8661		C.ar		1		UNL1		-0.1289
57		C		-11.0699		-4.7345		0.9286		C.ar		1		UNL1		-0.1384
58		C		-10.1604		-3.7944		0.4925		C.ar		1		UNL1		-0.1907
59		C		-10.5790		-2.5398		-0.0334		C.ar		1		UNL1		0.0791
60		C		-6.7208		-3.5169		-0.5036		C.ar		1		UNL1		0.0338
61		C		-6.8893		-3.6694		-2.0103		C.3		1		UNL1		-0.1438
62		C		-5.5884		-3.3132		-2.7563		C.3		1		UNL1		-0.4539
63		C		-7.4050		-5.0691		-2.4011		C.3		1		UNL1		-0.4602
64		C		-5.8204		-4.4324		0.2018		C.ar		1		UNL1		0.6007
65		O		-5.1452		-5.3230		-0.2988		O.2		1		UNL1		-0.5106
66		N		-5.7665		-4.2272		1.5887		N.ar		1		UNL1		-0.7031
67		C		-6.3923		-3.2561		2.3435		C.ar		1		UNL1		0.7941
68		O		-6.2283		-3.1586		3.5503		O.2		1		UNL1		-0.5211
69		H		19.4087		0.8792		3.7678		H		1		UNL1		0.1512
70		H		18.1586		1.4513		4.8802		H		1		UNL1		0.1513
71		H		19.4058		0.3522		5.4570		H		1		UNL1		0.1511
72		H		17.2309		-0.9110		5.0828		H		1		UNL1		0.1091
73		H		19.3194		-0.1745		2.0142		H		1		UNL1		0.1467
74		H		17.9896		-0.7964		1.0216		H		1		UNL1		0.1671
75		H		19.2221		-1.8980		1.6245		H		1		UNL1		0.1463
76		H		16.5833		-2.8128		4.0070		H		1		UNL1		0.1367
77		H		17.2551		-3.2610		2.4440		H		1		UNL1		0.1296
78		H		14.7689		-2.9243		2.5105		H		1		UNL1		0.1387
79		H		15.0064		-1.2216		2.8764		H		1		UNL1		0.1423
80		H		15.9341		-2.6359		0.2813		H		1		UNL1		0.1069
81		H		13.5162		0.7379		0.3262		H		1		UNL1		0.1611
82		H		15.1360		1.3708		0.5780		H		1		UNL1		0.1522
83		H		14.3546		0.4332		1.8592		H		1		UNL1		0.1527
84		H		16.1090		-1.2574		-1.6568		H		1		UNL1		0.1381
85		H		15.2868		0.3000		-1.7122		H		1		UNL1		0.1353
86		H		14.2268		-1.3878		-3.1727		H		1		UNL1		0.1347
87		H		13.9911		-2.4680		-1.8073		H		1		UNL1		0.1409
88		H		12.2551		-1.0513		-0.8252		H		1		UNL1		0.1200
89		H		13.2750		0.0528		-4.2949		H		1		UNL1		0.1540
90		H		12.2747		1.4938		-4.0659		H		1		UNL1		0.1515
91		H		11.5686		0.0374		-4.7539		H		1		UNL1		0.1562
92		H		10.4472		1.5170		-2.2829		H		1		UNL1		0.1310
93		H		10.4346		0.2567		-1.0534		H		1		UNL1		0.1425
94		H		9.4052		-1.3367		-2.6877		H		1		UNL1		0.1421
95		H		9.4236		-0.0946		-3.9278		H		1		UNL1		0.1398
96		H		7.8708		1.3543		-2.5890		H		1		UNL1		0.1095
97		H		6.2493		-2.3692		-1.8845		H		1		UNL1		0.1573
98		H		6.8281		-1.9176		-0.2861		H		1		UNL1		0.1502
99		H		7.9855		-2.2888		-1.5728		H		1		UNL1		0.1552
100		H		5.5291		0.2585		-0.3069		H		1		UNL1		0.1311
101		H		5.9077		1.4898		-1.5073		H		1		UNL1		0.1413
102		H		4.3276		-1.0789		-2.0663		H		1		UNL1		0.1398
103		H		4.7105		0.1524		-3.2576		H		1		UNL1		0.1409
104		H		2.9760		0.5338		-0.7240		H		1		UNL1		0.1183
105		H		1.9194		1.7411		-4.5267		H		1		UNL1		0.1516
106		H		2.9055		3.0884		-3.9729		H		1		UNL1		0.1493
107		H		3.6626		1.5254		-4.3124		H		1		UNL1		0.1546
108		H		0.4186		2.0539		-2.5072		H		1		UNL1		0.1440
109		H		1.4169		3.3770		-1.9691		H		1		UNL1		0.1356
110		H		0.7420		0.8900		-0.3053		H		1		UNL1		0.1440
111		H		1.7773		2.2029		0.2328		H		1		UNL1		0.1433
112		H		-0.0951		3.8413		0.0693		H		1		UNL1		0.1174
113		H		-2.1770		0.5690		1.4820		H		1		UNL1		0.1524
114		H		-1.1044		0.1921		0.1263		H		1		UNL1		0.1558
115		H		-2.7725		0.7017		-0.1685		H		1		UNL1		0.1554
116		H		-3.4763		3.0834		0.2380		H		1		UNL1		0.1479
117		H		-2.9186		2.9585		1.8849		H		1		UNL1		0.1360
118		H		-1.4271		4.9580		1.5277		H		1		UNL1		0.1436
119		H		-2.0123		5.0909		-0.1245		H		1		UNL1		0.1432
120		H		-3.6999		5.3884		2.4513		H		1		UNL1		0.1086
121		H		-3.1772		6.3942		-1.1583		H		1		UNL1		0.1556
122		H		-4.0398		7.9046		-0.8291		H		1		UNL1		0.1472
123		H		-4.9338		6.4662		-1.3113		H		1		UNL1		0.1592
124		H		-5.3607		6.8736		2.5270		H		1		UNL1		0.1359
125		H		-5.2501		8.2231		1.4009		H		1		UNL1		0.1330
126		H		-7.5232		7.4165		1.4846		H		1		UNL1		0.1416
127		H		-6.8864		7.1520		-0.1255		H		1		UNL1		0.1386
128		H		-6.9882		4.9569		2.0452		H		1		UNL1		0.1157
129		H		-7.7246		5.9533		-1.5332		H		1		UNL1		0.1529
130		H		-7.4352		4.2731		-2.0138		H		1		UNL1		0.1549
131		H		-9.0461		4.7801		-1.5205		H		1		UNL1		0.1474
132		H		-7.4323		2.4342		-0.3054		H		1		UNL1		0.1640
133		H		-9.0443		2.8874		0.1807		H		1		UNL1		0.1317
134		H		-8.2675		3.1415		2.5553		H		1		UNL1		0.1463
135		H		-6.6341		2.7052		2.0690		H		1		UNL1		0.1529
136		H		-9.1364		0.8988		1.8461		H		1		UNL1		0.1182
137		H		-5.2620		-0.3845		1.5556		H		1		UNL1		0.1674
138		H		-5.4790		-0.4418		3.3040		H		1		UNL1		0.1759
139		H		-5.3987		1.1210		2.4653		H		1		UNL1		0.1620
140		H		-7.8322		-1.6529		3.4060		H		1		UNL1		0.2124
141		H		-8.9558		-1.3113		2.0857		H		1		UNL1		0.1707
142		H		-9.5590		0.4271		-1.3956		H		1		UNL1		0.1788
143		H		-12.0161		0.8037		-1.5345		H		1		UNL1		0.1452
144		H		-13.5683		-0.9416		-0.6937		H		1		UNL1		0.1450
145		H		-13.9730		-3.0888		0.2838		H		1		UNL1		0.1393
146		H		-13.1619		-5.2388		1.2151		H		1		UNL1		0.1415
147		H		-10.7083		-5.6808		1.3214		H		1		UNL1		0.1446
148		H		-9.1093		-4.0379		0.5389		H		1		UNL1		0.1548
149		H		-7.6490		-2.9489		-2.3317		H		1		UNL1		0.1387
150		H		-5.2843		-2.2854		-2.5313		H		1		UNL1		0.1529
151		H		-5.7413		-3.3945		-3.8390		H		1		UNL1		0.1387
152		H		-4.7790		-3.9911		-2.4716		H		1		UNL1		0.1761
153		H		-8.3568		-5.2937		-1.9052		H		1		UNL1		0.1363
154		H		-7.5737		-5.1123		-3.4835		H		1		UNL1		0.1399
155		H		-6.6821		-5.8424		-2.1320		H		1		UNL1		0.1843
156		H		-5.1453		-4.8412		2.1040		H		1		UNL1		0.3537
@<TRIPOS>BOND
1		91		14		1
2		105		24		1
3		107		24		1
4		89		14		1
5		90		14		1
6		14		13		1
7		106		24		1
8		95		16		1
9		24		23		1
10		151		62		1
11		154		63		1
12		103		21		1
13		86		11		1
14		16		94		1
15		16		17		1
16		16		15		1
17		62		150		1
18		62		152		1
19		62		61		1
20		13		15		1
21		13		12		2
22		96		17		1
23		108		25		1
24		23		25		1
25		23		22		2
26		63		155		1
27		63		61		1
28		63		153		1
29		17		18		2
30		149		61		1
31		92		15		1
32		21		102		1
33		21		22		1
34		21		20		1
35		15		93		1
36		11		12		1
37		11		87		1
38		11		10		1
39		130		39		1
40		61		60		1
41		109		25		1
42		97		19		1
43		25		26		1
44		12		88		1
45		22		104		1
46		18		20		1
47		18		19		1
48		85		10		1
49		84		10		1
50		99		19		1
51		143		52		1
52		129		39		1
53		131		39		1
54		101		20		1
55		142		51		1
56		20		100		1
57		19		98		1
58		10		8		1
59		123		34		1
60		39		38		1
61		121		34		1
62		52		51		ar
63		52		53		ar
64		49		48		2
65		51		50		ar
66		122		34		1
67		34		33		1
68		144		53		1
69		53		54		ar
70		50		48		1
71		50		59		ar
72		60		64		ar
73		60		47		ar
74		48		47		1
75		26		110		1
76		26		27		1
77		26		111		1
78		132		40		1
79		65		64		2
80		115		29		1
81		127		36		1
82		119		31		1
83		54		59		ar
84		54		55		ar
85		59		58		ar
86		27		112		1
87		27		28		2
88		38		40		1
89		38		37		2
90		114		29		1
91		8		9		1
92		8		7		2
93		133		40		1
94		64		66		ar
95		47		46		ar
96		116		30		1
97		80		7		1
98		145		55		1
99		81		9		1
100		55		56		ar
101		40		41		1
102		28		29		1
103		28		30		1
104		29		113		1
105		58		148		1
106		58		57		ar
107		82		9		1
108		33		32		2
109		33		35		1
110		9		83		1
111		7		6		1
112		56		57		ar
113		56		146		1
114		30		31		1
115		30		117		1
116		31		32		1
117		31		118		1
118		36		37		1
119		36		35		1
120		36		126		1
121		57		147		1
122		74		4		1
123		37		128		1
124		32		120		1
125		125		35		1
126		35		124		1
127		137		44		1
128		66		156		1
129		66		67		ar
130		46		67		ar
131		46		45		1
132		75		4		1
133		41		42		1
134		41		135		1
135		41		134		1
136		136		42		1
137		4		73		1
138		4		3		1
139		42		43		2
140		141		45		1
141		43		45		1
142		43		44		1
143		6		78		1
144		6		79		1
145		6		5		1
146		67		68		2
147		45		140		1
148		44		139		1
149		44		138		1
150		77		5		1
151		5		3		1
152		5		76		1
153		3		2		2
154		69		1		1
155		2		1		1
156		2		72		1
157		1		70		1
158		1		71		1

