@<TRIPOS>MOLECULE
LJ-2007-EJMC-198-23
 47 49 0 0 0
SMALL
MULLIKEN_CHARGES
****
Gaussian 16 #p B3LYP/6-31G* opt
@<TRIPOS>ATOM
1		C		-0.7818		4.7948		-1.2025		C.2		1		UNL1		-0.3312
2		C		-0.8124		3.7355		-0.3937		C.2		1		UNL1		-0.0803
3		C		0.1045		3.5491		0.7859		C.3		1		UNL1		-0.0706
4		O		0.7570		2.2756		0.8056		O.3		1		UNL1		-0.4848
5		C		1.6858		2.1024		-0.2491		C.3		1		UNL1		0.0739
6		N		2.2416		0.7624		-0.1211		N.ar		1		UNL1		-0.5652
7		C		1.4268		-0.3686		-0.2259		C.ar		1		UNL1		0.2452
8		C		-0.0251		-0.1120		-0.6362		C.2		1		UNL1		0.3402
9		O		-0.2016		0.3187		-1.7694		O.2		1		UNL1		-0.4687
10		C		-1.1128		-0.4106		0.3316		C.ar		1		UNL1		0.0438
11		C		-0.7765		-0.5039		1.6768		C.ar		1		UNL1		-0.1732
12		C		-1.7467		-0.7335		2.6706		C.ar		1		UNL1		-0.1390
13		C		-3.0660		-0.8849		2.3118		C.ar		1		UNL1		-0.1746
14		C		-3.4692		-0.8080		0.9528		C.ar		1		UNL1		0.1317
15		C		-4.8342		-0.9768		0.5979		C.ar		1		UNL1		-0.1956
16		C		-5.2365		-0.9081		-0.7153		C.ar		1		UNL1		-0.1273
17		C		-4.2789		-0.6678		-1.7258		C.ar		1		UNL1		-0.1365
18		C		-2.9452		-0.4954		-1.4184		C.ar		1		UNL1		-0.1890
19		C		-2.4918		-0.5580		-0.0714		C.ar		1		UNL1		0.0707
20		C		1.9115		-1.6351		-0.1097		C.ar		1		UNL1		0.0208
21		C		1.1095		-2.8985		-0.3196		C.3		1		UNL1		-0.3325
22		C		1.3120		-3.4954		-1.7249		C.3		1		UNL1		-0.4473
23		C		3.3406		-1.8208		0.1676		C.ar		1		UNL1		0.6108
24		O		3.9013		-2.9005		0.2947		O.2		1		UNL1		-0.5074
25		N		4.0632		-0.6301		0.3023		N.ar		1		UNL1		-0.7005
26		C		3.6076		0.6685		0.1803		C.ar		1		UNL1		0.7841
27		O		4.3404		1.6340		0.3155		O.2		1		UNL1		-0.5111
28		H		-1.4819		4.9077		-2.0257		H		1		UNL1		0.1526
29		H		-0.0588		5.5973		-1.0669		H		1		UNL1		0.1439
30		H		-1.5400		2.9407		-0.5550		H		1		UNL1		0.1548
31		H		0.8495		4.3591		0.8261		H		1		UNL1		0.1389
32		H		-0.4658		3.5693		1.7215		H		1		UNL1		0.1635
33		H		2.5234		2.7992		-0.1682		H		1		UNL1		0.1913
34		H		1.1984		2.2046		-1.2228		H		1		UNL1		0.1851
35		H		0.2574		-0.3736		1.9745		H		1		UNL1		0.1622
36		H		-1.4463		-0.7888		3.7126		H		1		UNL1		0.1447
37		H		-3.8252		-1.0670		3.0689		H		1		UNL1		0.1430
38		H		-5.5558		-1.1652		1.3892		H		1		UNL1		0.1361
39		H		-6.2826		-1.0395		-0.9773		H		1		UNL1		0.1372
40		H		-4.5967		-0.6168		-2.7638		H		1		UNL1		0.1388
41		H		-2.2294		-0.3001		-2.2039		H		1		UNL1		0.1807
42		H		0.0459		-2.7116		-0.1502		H		1		UNL1		0.1481
43		H		1.4334		-3.6315		0.4270		H		1		UNL1		0.1691
44		H		2.3669		-3.7304		-1.8948		H		1		UNL1		0.1713
45		H		0.9824		-2.7952		-2.5007		H		1		UNL1		0.1502
46		H		0.7356		-4.4212		-1.8323		H		1		UNL1		0.1465
47		H		5.0524		-0.7232		0.5046		H		1		UNL1		0.3551
@<TRIPOS>BOND
1		40		17		1
2		45		22		1
3		41		18		1
4		28		1		1
5		44		22		1
6		46		22		1
7		9		8		2
8		17		18		ar
9		17		16		ar
10		22		21		1
11		18		19		ar
12		34		5		1
13		1		29		1
14		1		2		2
15		39		16		1
16		16		15		ar
17		8		7		1
18		8		10		1
19		30		2		1
20		2		3		1
21		21		42		1
22		21		20		1
23		21		43		1
24		5		33		1
25		5		6		1
26		5		4		1
27		7		6		ar
28		7		20		ar
29		6		26		ar
30		20		23		ar
31		19		10		ar
32		19		14		ar
33		23		24		2
34		23		25		ar
35		26		25		ar
36		26		27		2
37		25		47		1
38		10		11		ar
39		15		14		ar
40		15		38		1
41		3		4		1
42		3		31		1
43		3		32		1
44		14		13		ar
45		11		35		1
46		11		12		ar
47		13		12		ar
48		13		37		1
49		12		36		1

