@<TRIPOS>MOLECULE
LJ-2007-JMC-1778-3M
 45 47 0 0 0
SMALL
MULLIKEN_CHARGES
****
Gaussian 16 #p B3LYP/6-31G* opt
@<TRIPOS>ATOM
1		C		-4.9069		-1.9400		-1.7346		C.2		1		UNL1		-0.3248
2		C		-4.1151		-2.6762		-0.9587		C.2		1		UNL1		-0.0440
3		C		-3.6608		-2.3858		0.4481		C.3		1		UNL1		-0.4829
4		S		-4.1474		-0.7561		1.1471		S.3		1		UNL1		0.1487
5		C		-2.7751		0.2440		0.6167		C.ar		1		UNL1		0.3326
6		N		-1.6661		-0.2764		0.1872		N.ar		1		UNL1		-0.5002
7		C		-0.6569		0.5758		-0.1943		C.ar		1		UNL1		0.2199
8		C		0.5972		-0.1284		-0.7198		C.3		1		UNL1		-0.3332
9		C		0.2536		-1.4157		-1.3537		C.1		1		UNL1		0.3929
10		N		0.0333		-2.4327		-1.8678		N.1		1		UNL1		-0.4835
11		C		1.6930		-0.3343		0.3435		C.ar		1		UNL1		0.1046
12		C		1.3577		-0.4241		1.6785		C.ar		1		UNL1		-0.1822
13		C		2.3467		-0.5961		2.6744		C.ar		1		UNL1		-0.1361
14		C		3.6723		-0.6757		2.3239		C.ar		1		UNL1		-0.1827
15		C		4.0655		-0.6051		0.9612		C.ar		1		UNL1		0.1368
16		C		5.4324		-0.6969		0.5865		C.ar		1		UNL1		-0.1931
17		C		5.8122		-0.6469		-0.7347		C.ar		1		UNL1		-0.1301
18		C		4.8306		-0.5081		-1.7426		C.ar		1		UNL1		-0.1336
19		C		3.4962		-0.4107		-1.4139		C.ar		1		UNL1		-0.1942
20		C		3.0656		-0.4446		-0.0578		C.ar		1		UNL1		0.0924
21		C		-0.7258		1.9437		-0.1065		C.ar		1		UNL1		0.0594
22		C		0.3654		2.9090		-0.5001		C.3		1		UNL1		-0.3414
23		C		0.1585		3.5120		-1.9025		C.3		1		UNL1		-0.4481
24		C		-1.9661		2.5404		0.3790		C.ar		1		UNL1		0.5842
25		O		-2.2066		3.7349		0.4977		O.2		1		UNL1		-0.5199
26		N		-2.9573		1.5895		0.7168		N.ar		1		UNL1		-0.6497
27		H		-5.3259		-0.9938		-1.4040		H		1		UNL1		0.1560
28		H		-5.1583		-2.2643		-2.7400		H		1		UNL1		0.1471
29		H		-3.7141		-3.6152		-1.3424		H		1		UNL1		0.1542
30		H		-4.0686		-3.1217		1.1514		H		1		UNL1		0.1905
31		H		-2.5697		-2.4327		0.5132		H		1		UNL1		0.2379
32		H		1.0101		0.5032		-1.5128		H		1		UNL1		0.2012
33		H		0.3164		-0.3633		1.9764		H		1		UNL1		0.1481
34		H		2.0473		-0.6592		3.7167		H		1		UNL1		0.1377
35		H		4.4402		-0.7997		3.0835		H		1		UNL1		0.1357
36		H		6.1772		-0.8127		1.3703		H		1		UNL1		0.1351
37		H		6.8612		-0.7206		-1.0073		H		1		UNL1		0.1359
38		H		5.1303		-0.4844		-2.7866		H		1		UNL1		0.1374
39		H		2.7678		-0.3325		-2.2140		H		1		UNL1		0.1399
40		H		1.3456		2.4261		-0.4351		H		1		UNL1		0.1518
41		H		0.3663		3.7245		0.2313		H		1		UNL1		0.1754
42		H		0.9580		4.2240		-2.1350		H		1		UNL1		0.1510
43		H		-0.7961		4.0441		-1.9503		H		1		UNL1		0.1752
44		H		0.1577		2.7373		-2.6786		H		1		UNL1		0.1412
45		H		-3.8447		1.9790		1.0201		H		1		UNL1		0.3570
@<TRIPOS>BOND
1		38		18		1
2		28		1		1
3		44		23		1
4		39		19		1
5		42		23		1
6		43		23		1
7		23		22		1
8		10		9		3
9		18		19		ar
10		18		17		ar
11		1		27		1
12		1		2		2
13		32		8		1
14		19		20		ar
15		9		8		1
16		29		2		1
17		37		17		1
18		2		3		1
19		17		16		ar
20		8		7		1
21		8		11		1
22		22		40		1
23		22		21		1
24		22		41		1
25		7		21		ar
26		7		6		ar
27		21		24		ar
28		20		11		ar
29		20		15		ar
30		6		5		ar
31		11		12		ar
32		24		25		2
33		24		26		ar
34		3		31		1
35		3		4		1
36		3		30		1
37		16		15		ar
38		16		36		1
39		5		26		ar
40		5		4		1
41		26		45		1
42		15		14		ar
43		12		33		1
44		12		13		ar
45		14		13		ar
46		14		35		1
47		13		34		1

