@<TRIPOS>MOLECULE
LJ-2006-CPB-1249-15
 53 56 0 0 0
SMALL
MULLIKEN_CHARGES
****
Gaussian 16 #p B3LYP/6-31G* opt
@<TRIPOS>ATOM
1		C		0.3672		2.3506		3.3546		C.3		1		UNL1		-0.4481
2		C		1.2383		2.5789		2.1065		C.3		1		UNL1		-0.3277
3		C		0.4381		2.5580		0.8251		C.ar		1		UNL1		0.0172
4		C		0.3144		1.4697		0.0179		C.ar		1		UNL1		0.2210
5		C		0.9587		0.1395		0.4173		C.2		1		UNL1		0.3237
6		O		0.3083		-0.5703		1.1724		O.2		1		UNL1		-0.4515
7		C		2.3101		-0.1872		-0.1111		C.ar		1		UNL1		0.0502
8		C		2.9671		0.7878		-0.8563		C.ar		1		UNL1		-0.1957
9		C		4.2518		0.5792		-1.3917		C.ar		1		UNL1		-0.1360
10		C		4.8858		-0.6236		-1.1836		C.ar		1		UNL1		-0.1727
11		C		4.2668		-1.6598		-0.4365		C.ar		1		UNL1		0.1331
12		C		4.9369		-2.8961		-0.2379		C.ar		1		UNL1		-0.1955
13		C		4.3485		-3.9101		0.4811		C.ar		1		UNL1		-0.1259
14		C		3.0609		-3.7188		1.0287		C.ar		1		UNL1		-0.1352
15		C		2.3805		-2.5304		0.8582		C.ar		1		UNL1		-0.1891
16		C		2.9569		-1.4596		0.1215		C.ar		1		UNL1		0.0700
17		N		-0.4631		1.4621		-1.1367		N.ar		1		UNL1		-0.5386
18		C		-0.6424		0.2621		-1.9708		C.3		1		UNL1		-0.2004
19		C		-1.8199		-0.6059		-1.6082		C.2		1		UNL1		-0.1190
20		C		-2.5785		-0.4967		-0.5108		C.2		1		UNL1		-0.1432
21		C		-3.7311		-1.3378		-0.1517		C.ar		1		UNL1		0.1668
22		C		-4.3783		-2.1895		-1.0656		C.ar		1		UNL1		-0.1808
23		C		-5.4568		-2.9752		-0.6693		C.ar		1		UNL1		-0.1310
24		C		-5.9216		-2.9256		0.6482		C.ar		1		UNL1		-0.1288
25		C		-5.2987		-2.0771		1.5641		C.ar		1		UNL1		-0.1298
26		C		-4.2190		-1.2905		1.1656		C.ar		1		UNL1		-0.1922
27		C		-1.1673		2.6006		-1.5538		C.ar		1		UNL1		0.7833
28		O		-1.8389		2.6330		-2.5708		O.2		1		UNL1		-0.5090
29		N		-1.0221		3.6900		-0.7151		N.ar		1		UNL1		-0.7034
30		C		-0.2801		3.7835		0.4711		C.ar		1		UNL1		0.6056
31		O		-0.2622		4.8280		1.1079		O.2		1		UNL1		-0.5103
32		H		-0.1134		1.3673		3.3171		H		1		UNL1		0.1586
33		H		-0.4099		3.1180		3.4240		H		1		UNL1		0.1676
34		H		0.9778		2.4022		4.2632		H		1		UNL1		0.1443
35		H		2.0339		1.8267		2.0693		H		1		UNL1		0.1398
36		H		1.7245		3.5575		2.1835		H		1		UNL1		0.1684
37		H		2.4839		1.7450		-1.0207		H		1		UNL1		0.1597
38		H		4.7322		1.3683		-1.9620		H		1		UNL1		0.1474
39		H		5.8784		-0.7997		-1.5912		H		1		UNL1		0.1462
40		H		5.9269		-3.0242		-0.6686		H		1		UNL1		0.1377
41		H		4.8680		-4.8528		0.6281		H		1		UNL1		0.1394
42		H		2.5956		-4.5203		1.5962		H		1		UNL1		0.1422
43		H		1.3987		-2.3993		1.2890		H		1		UNL1		0.1900
44		H		0.2878		-0.3165		-1.9374		H		1		UNL1		0.1712
45		H		-0.7574		0.6184		-2.9981		H		1		UNL1		0.2029
46		H		-2.0187		-1.3864		-2.3416		H		1		UNL1		0.1347
47		H		-2.3262		0.2681		0.2212		H		1		UNL1		0.1371
48		H		-4.0470		-2.2236		-2.0996		H		1		UNL1		0.1270
49		H		-5.9439		-3.6231		-1.3935		H		1		UNL1		0.1294
50		H		-6.7665		-3.5369		0.9536		H		1		UNL1		0.1292
51		H		-5.6540		-2.0251		2.5899		H		1		UNL1		0.1308
52		H		-3.7348		-0.6340		1.8847		H		1		UNL1		0.1348
53		H		-1.5277		4.5224		-0.9970		H		1		UNL1		0.3543
@<TRIPOS>BOND
1		45		18		1
2		28		27		2
3		46		19		1
4		48		22		1
5		18		44		1
6		18		19		1
7		18		17		1
8		38		9		1
9		19		20		2
10		39		10		1
11		27		17		ar
12		27		29		ar
13		49		23		1
14		9		10		ar
15		9		8		ar
16		10		11		ar
17		17		4		ar
18		22		23		ar
19		22		21		ar
20		37		8		1
21		53		29		1
22		8		7		ar
23		29		30		ar
24		23		24		ar
25		40		12		1
26		20		21		1
27		20		47		1
28		11		12		ar
29		11		16		ar
30		12		13		ar
31		21		26		ar
32		7		16		ar
33		7		5		1
34		4		5		1
35		4		3		ar
36		16		15		ar
37		5		6		2
38		30		3		ar
39		30		31		2
40		13		41		1
41		13		14		ar
42		24		50		1
43		24		25		ar
44		3		2		1
45		15		14		ar
46		15		43		1
47		14		42		1
48		26		25		ar
49		26		52		1
50		25		51		1
51		35		2		1
52		2		36		1
53		2		1		1
54		32		1		1
55		1		33		1
56		1		34		1

