@<TRIPOS>MOLECULE
LJ-2007-JMC-1778-3H
 42 44 0 0 0
SMALL
MULLIKEN_CHARGES
****
Gaussian 16 #p B3LYP/6-31G* opt
@<TRIPOS>ATOM
1		C		2.1280		2.3660		0.9940		C.3		1		UNL1		-0.5458
2		C		1.0006		1.4925		0.5146		C.ar		1		UNL1		0.0723
3		C		1.0902		0.5281		-0.4606		C.ar		1		UNL1		0.2360
4		C		2.3905		0.1922		-1.2102		C.3		1		UNL1		-0.3013
5		C		2.9990		1.3884		-1.8085		C.1		1		UNL1		0.3719
6		N		3.4761		2.3284		-2.2947		N.1		1		UNL1		-0.4953
7		C		3.3737		-0.6312		-0.3623		C.ar		1		UNL1		0.1514
8		C		2.9361		-1.8631		0.1438		C.ar		1		UNL1		-0.1680
9		C		3.7923		-2.6554		0.9056		C.ar		1		UNL1		-0.1336
10		C		5.0965		-2.2289		1.1699		C.ar		1		UNL1		-0.1225
11		C		5.5371		-1.0073		0.6635		C.ar		1		UNL1		-0.1361
12		C		4.6805		-0.2103		-0.1010		C.ar		1		UNL1		-0.1880
13		N		0.0469		-0.2699		-0.8695		N.ar		1		UNL1		-0.5316
14		C		-1.1141		-0.0901		-0.3060		C.ar		1		UNL1		0.3319
15		S		-2.4143		-1.1665		-0.8534		S.3		1		UNL1		0.2114
16		C		-3.9069		-0.6340		0.0843		C.3		1		UNL1		-0.3048
17		C		-5.0145		-1.6933		-0.0965		C.3		1		UNL1		-0.2836
18		C		-6.3155		-0.9590		0.3185		C.3		1		UNL1		-0.2788
19		C		-5.9997		0.5651		0.2347		C.3		1		UNL1		-0.2769
20		C		-4.5892		0.6640		-0.3843		C.3		1		UNL1		-0.2739
21		N		-1.3152		0.8510		0.6525		N.ar		1		UNL1		-0.6481
22		C		-0.2974		1.7100		1.1403		C.ar		1		UNL1		0.5743
23		O		-0.5771		2.5260		2.0088		O.2		1		UNL1		-0.5194
24		H		2.2877		3.2196		0.3239		H		1		UNL1		0.1893
25		H		3.0706		1.8159		1.0586		H		1		UNL1		0.1669
26		H		1.8786		2.7615		1.9813		H		1		UNL1		0.1882
27		H		2.0681		-0.4366		-2.0492		H		1		UNL1		0.2241
28		H		1.9234		-2.1984		-0.0640		H		1		UNL1		0.1522
29		H		3.4414		-3.6092		1.2906		H		1		UNL1		0.1354
30		H		5.7640		-2.8478		1.7632		H		1		UNL1		0.1341
31		H		6.5506		-0.6678		0.8589		H		1		UNL1		0.1385
32		H		5.0361		0.7350		-0.5006		H		1		UNL1		0.1583
33		H		-3.6465		-0.5784		1.1495		H		1		UNL1		0.1695
34		H		-5.0641		-1.9865		-1.1527		H		1		UNL1		0.1631
35		H		-4.8219		-2.5994		0.4849		H		1		UNL1		0.1623
36		H		-6.6080		-1.2363		1.3363		H		1		UNL1		0.1508
37		H		-7.1461		-1.2409		-0.3356		H		1		UNL1		0.1532
38		H		-6.7378		1.1153		-0.3566		H		1		UNL1		0.1545
39		H		-6.0030		1.0092		1.2365		H		1		UNL1		0.1486
40		H		-4.6421		0.6554		-1.4794		H		1		UNL1		0.1650
41		H		-4.0593		1.5777		-0.0948		H		1		UNL1		0.1507
42		H		-2.2230		1.0004		1.0757		H		1		UNL1		0.3537
@<TRIPOS>BOND
1		6		5		3
2		27		4		1
3		5		4		1
4		40		20		1
5		4		3		1
6		4		7		1
7		34		17		1
8		13		3		ar
9		13		14		ar
10		15		14		1
11		15		16		1
12		32		12		1
13		3		2		ar
14		20		41		1
15		20		16		1
16		20		19		1
17		7		12		ar
18		7		8		ar
19		38		19		1
20		37		18		1
21		14		21		ar
22		12		11		ar
23		17		16		1
24		17		18		1
25		17		35		1
26		28		8		1
27		16		33		1
28		8		9		ar
29		19		18		1
30		19		39		1
31		18		36		1
32		24		1		1
33		2		1		1
34		2		22		ar
35		21		42		1
36		21		22		ar
37		11		31		1
38		11		10		ar
39		9		10		ar
40		9		29		1
41		1		25		1
42		1		26		1
43		22		23		2
44		10		30		1

