@<TRIPOS>MOLECULE
LJ-2007-JMC-1778-3F
 50 53 0 0 0
SMALL
MULLIKEN_CHARGES
****
Gaussian 16 #p B3LYP/6-31G* opt
@<TRIPOS>ATOM
1		C		3.0490		-2.8298		-0.9202		C.3		1		UNL1		-0.5577
2		C		1.9683		-1.8508		-0.5477		C.ar		1		UNL1		0.0790
3		C		2.0257		-0.9418		0.4787		C.ar		1		UNL1		0.2473
4		C		3.2360		-0.7776		1.4223		C.3		1		UNL1		-0.3207
5		C		3.4259		-2.0061		2.2103		C.1		1		UNL1		0.3745
6		N		3.5614		-2.9739		2.8372		N.1		1		UNL1		-0.4938
7		C		4.5359		-0.3009		0.7526		C.ar		1		UNL1		0.1092
8		C		5.6228		-1.1430		0.6357		C.ar		1		UNL1		-0.2048
9		C		6.8284		-0.7152		0.0318		C.ar		1		UNL1		-0.1388
10		C		6.9420		0.5655		-0.4488		C.ar		1		UNL1		-0.1832
11		C		5.8582		1.4765		-0.3368		C.ar		1		UNL1		0.1355
12		C		5.9740		2.8104		-0.8108		C.ar		1		UNL1		-0.1954
13		C		4.9326		3.7008		-0.6890		C.ar		1		UNL1		-0.1295
14		C		3.7245		3.2871		-0.0832		C.ar		1		UNL1		-0.1421
15		C		3.5741		1.9987		0.3832		C.ar		1		UNL1		-0.2091
16		C		4.6293		1.0496		0.2731		C.ar		1		UNL1		0.0809
17		N		1.0085		-0.0636		0.7884		N.ar		1		UNL1		-0.5217
18		C		-0.0820		-0.1307		0.0854		C.ar		1		UNL1		0.3233
19		S		-1.3668		1.0041		0.5959		S.3		1		UNL1		0.2107
20		C		-2.4259		1.1773		-0.9065		C.3		1		UNL1		-0.5690
21		C		-3.4340		0.0410		-1.0466		C.2		1		UNL1		0.4328
22		O		-3.0658		-0.9999		-1.5863		O.2		1		UNL1		-0.4643
23		C		-4.8193		0.1814		-0.5292		C.ar		1		UNL1		0.0830
24		C		-5.7135		-0.8797		-0.7600		C.ar		1		UNL1		-0.1465
25		C		-7.0237		-0.8201		-0.3052		C.ar		1		UNL1		-0.1288
26		C		-7.4472		0.3112		0.3986		C.ar		1		UNL1		-0.0577
27		CL		-9.0960		0.3953		0.9775		Cl		1		UNL1		0.0119
28		C		-6.5792		1.3746		0.6496		C.ar		1		UNL1		-0.1327
29		C		-5.2700		1.3060		0.1812		C.ar		1		UNL1		-0.1706
30		N		-0.2615		-0.9991		-0.9372		N.ar		1		UNL1		-0.6637
31		C		0.7448		-1.9081		-1.3507		C.ar		1		UNL1		0.5724
32		O		0.5261		-2.6555		-2.2932		O.2		1		UNL1		-0.5104
33		H		3.4012		-3.3962		-0.0523		H		1		UNL1		0.1791
34		H		2.6508		-3.5290		-1.6580		H		1		UNL1		0.1958
35		H		3.9158		-2.3243		-1.3603		H		1		UNL1		0.1780
36		H		2.9221		-0.0134		2.1430		H		1		UNL1		0.2200
37		H		5.5622		-2.1556		1.0217		H		1		UNL1		0.1566
38		H		7.6600		-1.4099		-0.0439		H		1		UNL1		0.1387
39		H		7.8644		0.9044		-0.9141		H		1		UNL1		0.1338
40		H		6.9106		3.1160		-1.2712		H		1		UNL1		0.1327
41		H		5.0360		4.7191		-1.0536		H		1		UNL1		0.1318
42		H		2.9034		3.9921		0.0160		H		1		UNL1		0.1313
43		H		2.6289		1.7087		0.8290		H		1		UNL1		0.1735
44		H		-2.8908		2.1596		-0.8083		H		1		UNL1		0.2065
45		H		-1.7897		1.1926		-1.7948		H		1		UNL1		0.2244
46		H		-5.3575		-1.7484		-1.3032		H		1		UNL1		0.1858
47		H		-7.7138		-1.6368		-0.4870		H		1		UNL1		0.1731
48		H		-6.9252		2.2404		1.2032		H		1		UNL1		0.1703
49		H		-4.6057		2.1372		0.3925		H		1		UNL1		0.1508
50		H		-1.1709		-1.1025		-1.4023		H		1		UNL1		0.3980
@<TRIPOS>BOND
1		32		31		2
2		45		20		1
3		34		1		1
4		22		21		2
5		50		30		1
6		35		1		1
7		31		30		ar
8		31		2		ar
9		46		24		1
10		40		12		1
11		41		13		1
12		21		20		1
13		21		23		1
14		30		18		ar
15		1		2		1
16		1		33		1
17		39		10		1
18		20		44		1
19		20		19		1
20		12		13		ar
21		12		11		ar
22		24		23		ar
23		24		25		ar
24		13		14		ar
25		2		3		ar
26		23		29		ar
27		47		25		1
28		10		11		ar
29		10		9		ar
30		11		16		ar
31		25		26		ar
32		14		42		1
33		14		15		ar
34		38		9		1
35		9		8		ar
36		18		19		1
37		18		17		ar
38		29		49		1
39		29		28		ar
40		16		15		ar
41		16		7		ar
42		15		43		1
43		26		28		ar
44		26		27		1
45		3		17		ar
46		3		4		1
47		8		7		ar
48		8		37		1
49		28		48		1
50		7		4		1
51		4		36		1
52		4		5		1
53		5		6		3

