@<TRIPOS>MOLECULE
LJ-2007-JMC-1778-3R
 47 49 0 0 0
SMALL
MULLIKEN_CHARGES
****
Gaussian 16 #p B3LYP/6-31G* opt
@<TRIPOS>ATOM
1		C		5.6908		0.2239		0.6559		C.3		1		UNL1		-0.4511
2		C		4.3169		-0.2500		1.1663		C.3		1		UNL1		-0.3352
3		C		3.1660		0.5794		0.6446		C.ar		1		UNL1		0.0431
4		C		2.2686		0.2443		-0.3382		C.ar		1		UNL1		0.2293
5		C		2.2265		-1.0710		-1.1254		C.3		1		UNL1		-0.3268
6		C		3.5343		-1.6757		-1.4277		C.1		1		UNL1		0.3916
7		N		4.5351		-2.1797		-1.7317		N.1		1		UNL1		-0.4834
8		C		1.2627		-2.1080		-0.5216		C.ar		1		UNL1		0.1658
9		C		0.4465		-2.8545		-1.3800		C.ar		1		UNL1		-0.1766
10		C		-0.4352		-3.8081		-0.8693		C.ar		1		UNL1		-0.1296
11		C		-0.5092		-4.0248		0.5080		C.ar		1		UNL1		-0.1274
12		C		0.3039		-3.2844		1.3683		C.ar		1		UNL1		-0.1318
13		C		1.1858		-2.3310		0.8576		C.ar		1		UNL1		-0.1694
14		N		1.2185		1.0551		-0.7364		N.ar		1		UNL1		-0.5231
15		C		1.0680		2.2005		-0.1476		C.ar		1		UNL1		0.3442
16		S		-0.2276		3.3441		-0.5747		S.3		1		UNL1		0.1702
17		C		-1.2637		2.3176		-1.7180		C.3		1		UNL1		-0.5328
18		C		-2.3473		1.5301		-1.0272		C.ar		1		UNL1		0.1971
19		C		-2.1172		0.2067		-0.6231		C.ar		1		UNL1		-0.1928
20		C		-3.1162		-0.5282		0.0088		C.ar		1		UNL1		-0.1531
21		C		-4.3513		0.0757		0.2332		C.ar		1		UNL1		0.2751
22		N		-5.4144		-0.6954		0.8970		N.pl3		1		UNL1		0.3798
23		O		-6.4952		-0.1364		1.0826		O.2		1		UNL1		-0.3936
24		O		-5.1595		-1.8534		1.2270		O.2		1		UNL1		-0.3940
25		C		-4.6127		1.3881		-0.1572		C.ar		1		UNL1		-0.1460
26		C		-3.6035		2.1079		-0.7883		C.ar		1		UNL1		-0.1860
27		N		1.9078		2.6330		0.8312		N.ar		1		UNL1		-0.6530
28		C		3.0079		1.8814		1.2999		C.ar		1		UNL1		0.5887
29		O		3.7099		2.3362		2.1917		O.2		1		UNL1		-0.5097
30		H		5.8600		1.2700		0.9260		H		1		UNL1		0.1684
31		H		5.7668		0.1170		-0.4301		H		1		UNL1		0.1621
32		H		6.4852		-0.3784		1.1095		H		1		UNL1		0.1524
33		H		4.1788		-1.3056		0.9229		H		1		UNL1		0.1573
34		H		4.3057		-0.1656		2.2593		H		1		UNL1		0.1685
35		H		1.8105		-0.7875		-2.0995		H		1		UNL1		0.2115
36		H		0.5032		-2.6919		-2.4538		H		1		UNL1		0.1392
37		H		-1.0634		-4.3791		-1.5473		H		1		UNL1		0.1446
38		H		-1.1961		-4.7651		0.9083		H		1		UNL1		0.1470
39		H		0.2514		-3.4459		2.4413		H		1		UNL1		0.1457
40		H		1.8040		-1.7531		1.5374		H		1		UNL1		0.1498
41		H		-0.5667		1.6723		-2.2551		H		1		UNL1		0.2273
42		H		-1.6826		3.0477		-2.4156		H		1		UNL1		0.2010
43		H		-1.1487		-0.2474		-0.8013		H		1		UNL1		0.1757
44		H		-2.9502		-1.5514		0.3224		H		1		UNL1		0.1890
45		H		-5.5881		1.8187		0.0319		H		1		UNL1		0.1860
46		H		-3.7957		3.1312		-1.1007		H		1		UNL1		0.1452
47		H		1.7679		3.5260		1.2940		H		1		UNL1		0.3598
@<TRIPOS>BOND
1		36		9		1
2		42		17		1
3		41		17		1
4		35		5		1
5		7		6		3
6		17		18		1
7		17		16		1
8		37		10		1
9		6		5		1
10		9		10		ar
11		9		8		ar
12		5		8		1
13		5		4		1
14		46		26		1
15		18		26		ar
16		18		19		ar
17		10		11		ar
18		43		19		1
19		26		25		ar
20		14		4		ar
21		14		15		ar
22		19		20		ar
23		16		15		1
24		8		13		ar
25		31		1		1
26		4		3		ar
27		25		45		1
28		25		21		ar
29		15		27		ar
30		20		21		ar
31		20		44		1
32		21		22		1
33		11		38		1
34		11		12		ar
35		3		2		1
36		3		28		ar
37		1		30		1
38		1		32		1
39		1		2		1
40		27		47		1
41		27		28		ar
42		13		12		ar
43		13		40		1
44		22		23		2
45		22		24		2
46		33		2		1
47		2		34		1
48		28		29		2
49		12		39		1

