@<TRIPOS>MOLECULE
LJ-2007-JMC-1778-4E
 36 37 0 0 0
SMALL
MULLIKEN_CHARGES
****
Gaussian 16 #p B3LYP/6-31G* opt
@<TRIPOS>ATOM
1		C		0.0049		3.8444		-0.0511		C.3		1		UNL1		-0.5055
2		C		0.6269		2.4796		0.0267		C.ar		1		UNL1		0.0561
3		C		0.0076		1.2819		-0.2338		C.ar		1		UNL1		0.1459
4		C		-1.4279		1.2163		-0.7185		C.2		1		UNL1		0.3557
5		O		-1.7905		1.9692		-1.6124		O.2		1		UNL1		-0.4581
6		C		-2.3732		0.2313		-0.1090		C.ar		1		UNL1		0.0865
7		C		-3.5943		0.0088		-0.7661		C.ar		1		UNL1		-0.1556
8		C		-4.5371		-0.8607		-0.2272		C.ar		1		UNL1		-0.1347
9		C		-4.2783		-1.5065		0.9857		C.ar		1		UNL1		-0.1179
10		C		-3.0735		-1.2800		1.6543		C.ar		1		UNL1		-0.1414
11		C		-2.1214		-0.4196		1.1089		C.ar		1		UNL1		-0.1567
12		N		0.6219		0.0461		-0.1485		N.ar		1		UNL1		-0.5154
13		C		1.8790		0.0178		0.1770		C.ar		1		UNL1		0.3296
14		S		2.7959		-1.4963		0.3172		S.3		1		UNL1		0.1366
15		C		1.5698		-2.7420		-0.3233		C.3		1		UNL1		-0.2331
16		C		1.9961		-4.1078		0.2223		C.3		1		UNL1		-0.4576
17		C		1.4836		-2.7100		-1.8485		C.3		1		UNL1		-0.4373
18		N		2.5860		1.1508		0.4575		N.ar		1		UNL1		-0.6503
19		C		2.0348		2.4503		0.4230		C.ar		1		UNL1		0.5807
20		O		2.7327		3.4158		0.7006		O.2		1		UNL1		-0.5115
21		H		0.2992		4.4325		0.8241		H		1		UNL1		0.1724
22		H		-1.0811		3.8031		-0.1267		H		1		UNL1		0.1698
23		H		0.3808		4.3831		-0.9299		H		1		UNL1		0.1796
24		H		-3.7809		0.5322		-1.6982		H		1		UNL1		0.1634
25		H		-5.4757		-1.0331		-0.7468		H		1		UNL1		0.1390
26		H		-5.0162		-2.1823		1.4100		H		1		UNL1		0.1381
27		H		-2.8751		-1.7736		2.6017		H		1		UNL1		0.1364
28		H		-1.1865		-0.2508		1.6310		H		1		UNL1		0.1467
29		H		0.6117		-2.4407		0.1070		H		1		UNL1		0.2046
30		H		2.9905		-4.3941		-0.1396		H		1		UNL1		0.1616
31		H		1.2870		-4.8690		-0.1227		H		1		UNL1		0.1622
32		H		2.0095		-4.1228		1.3164		H		1		UNL1		0.1673
33		H		1.1718		-1.7248		-2.2035		H		1		UNL1		0.1776
34		H		0.7394		-3.4424		-2.1863		H		1		UNL1		0.1535
35		H		2.4459		-2.9641		-2.3060		H		1		UNL1		0.1552
36		H		3.5704		1.1074		0.7030		H		1		UNL1		0.3564
@<TRIPOS>BOND
1		35		17		1
2		33		17		1
3		34		17		1
4		17		15		1
5		24		7		1
6		5		4		2
7		23		1		1
8		7		8		ar
9		7		6		ar
10		25		8		1
11		4		3		1
12		4		6		1
13		15		29		1
14		15		16		1
15		15		14		1
16		3		12		ar
17		3		2		ar
18		8		9		ar
19		12		13		ar
20		30		16		1
21		22		1		1
22		31		16		1
23		6		11		ar
24		1		2		1
25		1		21		1
26		2		19		ar
27		13		14		1
28		13		18		ar
29		16		32		1
30		19		18		ar
31		19		20		2
32		18		36		1
33		9		26		1
34		9		10		ar
35		11		28		1
36		11		10		ar
37		10		27		1

