@<TRIPOS>MOLECULE
LJ-2007-JMC-1778-3A
 41 43 0 0 0
SMALL
MULLIKEN_CHARGES
****
Gaussian 16 #p B3LYP/6-31G* opt
@<TRIPOS>ATOM
1		C		5.4584		-0.1486		-0.3756		C.3		1		UNL1		-0.4416
2		C		4.6174		-1.0475		0.5359		C.3		1		UNL1		-0.2755
3		C		5.3091		-2.3881		0.8154		C.3		1		UNL1		-0.4575
4		S		2.9690		-1.4736		-0.2083		S.3		1		UNL1		0.2076
5		C		2.0224		0.0260		-0.1525		C.ar		1		UNL1		0.3298
6		N		0.8940		-0.0001		-0.8060		N.ar		1		UNL1		-0.5077
7		C		0.1125		1.1257		-0.7526		C.ar		1		UNL1		0.3160
8		C		-1.1833		0.9685		-1.5597		C.3		1		UNL1		-0.3290
9		C		-1.9624		2.2145		-1.6378		C.1		1		UNL1		0.3746
10		N		-2.5761		3.1965		-1.7176		N.1		1		UNL1		-0.4833
11		C		-2.0343		-0.2344		-1.1281		C.ar		1		UNL1		0.1421
12		C		-2.1212		-1.3005		-1.9997		C.ar		1		UNL1		-0.1933
13		C		-2.8677		-2.4577		-1.6820		C.ar		1		UNL1		-0.1323
14		C		-3.5285		-2.5375		-0.4808		C.ar		1		UNL1		-0.1843
15		C		-3.4708		-1.4666		0.4502		C.ar		1		UNL1		0.1403
16		C		-4.1527		-1.5425		1.6939		C.ar		1		UNL1		-0.1955
17		C		-4.0999		-0.5064		2.5971		C.ar		1		UNL1		-0.1297
18		C		-3.3577		0.6566		2.2887		C.ar		1		UNL1		-0.1395
19		C		-2.6839		0.7633		1.0919		C.ar		1		UNL1		-0.1846
20		C		-2.7135		-0.2872		0.1331		C.ar		1		UNL1		0.0888
21		C		0.4617		2.2713		-0.0949		C.ar		1		UNL1		-0.2740
22		C		1.7057		2.3322		0.6395		C.ar		1		UNL1		0.6129
23		O		2.1617		3.2599		1.2890		O.2		1		UNL1		-0.5159
24		N		2.4390		1.1114		0.5540		N.ar		1		UNL1		-0.6461
25		H		6.4164		0.0778		0.1085		H		1		UNL1		0.1617
26		H		5.6649		-0.6534		-1.3249		H		1		UNL1		0.1722
27		H		4.9640		0.8008		-0.6025		H		1		UNL1		0.1628
28		H		4.4322		-0.5581		1.5005		H		1		UNL1		0.1695
29		H		5.4651		-2.9522		-0.1111		H		1		UNL1		0.1710
30		H		6.2912		-2.2032		1.2641		H		1		UNL1		0.1653
31		H		4.7271		-3.0077		1.5039		H		1		UNL1		0.1755
32		H		-0.8532		0.7549		-2.5849		H		1		UNL1		0.2135
33		H		-1.5989		-1.2561		-2.9516		H		1		UNL1		0.1347
34		H		-2.9124		-3.2773		-2.3934		H		1		UNL1		0.1355
35		H		-4.1071		-3.4216		-0.2242		H		1		UNL1		0.1341
36		H		-4.7216		-2.4417		1.9181		H		1		UNL1		0.1322
37		H		-4.6272		-0.5770		3.5444		H		1		UNL1		0.1335
38		H		-3.3193		1.4761		3.0009		H		1		UNL1		0.1378
39		H		-2.1271		1.6684		0.8834		H		1		UNL1		0.1440
40		H		-0.1626		3.1564		-0.0938		H		1		UNL1		0.1818
41		H		3.3055		1.1095		1.0786		H		1		UNL1		0.3523
@<TRIPOS>BOND
1		33		12		1
2		32		8		1
3		34		13		1
4		12		13		ar
5		12		11		ar
6		10		9		3
7		13		14		ar
8		9		8		1
9		8		11		1
10		8		7		1
11		26		1		1
12		11		20		ar
13		6		7		ar
14		6		5		ar
15		7		21		ar
16		27		1		1
17		14		35		1
18		14		15		ar
19		1		25		1
20		1		2		1
21		4		5		1
22		4		2		1
23		5		24		ar
24		29		3		1
25		21		40		1
26		21		22		ar
27		20		15		ar
28		20		19		ar
29		15		16		ar
30		2		3		1
31		2		28		1
32		24		22		ar
33		24		41		1
34		22		23		2
35		3		30		1
36		3		31		1
37		39		19		1
38		19		18		ar
39		16		36		1
40		16		17		ar
41		18		17		ar
42		18		38		1
43		17		37		1

