@<TRIPOS>MOLECULE
LJ-2007-EJMC-198-20
 50 53 0 0 0
SMALL
MULLIKEN_CHARGES
****
Gaussian 16 #p B3LYP/6-31G* opt
@<TRIPOS>ATOM
1		C		0.8082		-4.4208		0.0595		C.3		1		UNL1		-0.4477
2		C		0.7287		-3.1745		0.9601		C.3		1		UNL1		-0.3315
3		C		1.6102		-2.0490		0.4709		C.ar		1		UNL1		0.0203
4		C		1.1808		-1.0091		-0.2919		C.ar		1		UNL1		0.2481
5		C		-0.2693		-0.9569		-0.7836		C.2		1		UNL1		0.3090
6		O		-0.4632		-1.3845		-1.9157		O.2		1		UNL1		-0.4634
7		C		-1.3164		-0.4230		0.1196		C.ar		1		UNL1		0.0570
8		C		-0.9026		0.1795		1.3038		C.ar		1		UNL1		-0.1794
9		C		-1.8185		0.7295		2.2198		C.ar		1		UNL1		-0.1397
10		C		-3.1662		0.6723		1.9490		C.ar		1		UNL1		-0.1722
11		C		-3.6510		0.0694		0.7590		C.ar		1		UNL1		0.1323
12		C		-5.0466		0.0168		0.5013		C.ar		1		UNL1		-0.1952
13		C		-5.5311		-0.5666		-0.6460		C.ar		1		UNL1		-0.1265
14		C		-4.6278		-1.1213		-1.5791		C.ar		1		UNL1		-0.1352
15		C		-3.2652		-1.0869		-1.3629		C.ar		1		UNL1		-0.1894
16		C		-2.7275		-0.4917		-0.1891		C.ar		1		UNL1		0.0713
17		N		2.0444		-0.0367		-0.8015		N.ar		1		UNL1		-0.5651
18		C		1.5657		1.1179		-1.5401		C.3		1		UNL1		0.0908
19		O		1.1946		2.1248		-0.6219		O.3		1		UNL1		-0.4842
20		C		0.9066		3.3628		-1.2656		C.3		1		UNL1		-0.0147
21		C		0.7183		4.4531		-0.2347		C.3		1		UNL1		-0.1275
22		C		0.0620		4.1801		1.0940		C.3		1		UNL1		-0.3176
23		C		1.5428		4.4807		1.0260		C.3		1		UNL1		-0.3094
24		C		3.4209		-0.0491		-0.5169		C.ar		1		UNL1		0.7965
25		O		4.1957		0.7974		-0.9260		O.2		1		UNL1		-0.5087
26		N		3.8219		-1.1168		0.2613		N.ar		1		UNL1		-0.7047
27		C		3.0366		-2.1477		0.7946		C.ar		1		UNL1		0.6100
28		O		3.5506		-3.0274		1.4707		O.2		1		UNL1		-0.5069
29		H		0.4727		-4.1902		-0.9575		H		1		UNL1		0.1558
30		H		1.8357		-4.7937		0.0103		H		1		UNL1		0.1691
31		H		0.1747		-5.2214		0.4576		H		1		UNL1		0.1456
32		H		-0.3105		-2.8392		1.0348		H		1		UNL1		0.1433
33		H		1.0550		-3.4426		1.9707		H		1		UNL1		0.1698
34		H		0.1561		0.2365		1.5285		H		1		UNL1		0.1664
35		H		-1.4550		1.1924		3.1320		H		1		UNL1		0.1495
36		H		-3.8857		1.0910		2.6488		H		1		UNL1		0.1457
37		H		-5.7254		0.4477		1.2332		H		1		UNL1		0.1373
38		H		-6.6002		-0.6031		-0.8352		H		1		UNL1		0.1385
39		H		-5.0104		-1.5837		-2.4851		H		1		UNL1		0.1404
40		H		-2.5889		-1.5106		-2.0909		H		1		UNL1		0.1856
41		H		2.3898		1.4559		-2.1746		H		1		UNL1		0.1814
42		H		0.7196		0.8173		-2.1666		H		1		UNL1		0.1677
43		H		1.7378		3.6279		-1.9402		H		1		UNL1		0.1360
44		H		-0.0016		3.2602		-1.8842		H		1		UNL1		0.1292
45		H		0.4990		5.4155		-0.6948		H		1		UNL1		0.1408
46		H		-0.6039		4.9370		1.5002		H		1		UNL1		0.1450
47		H		-0.2339		3.1578		1.3064		H		1		UNL1		0.1634
48		H		1.8958		5.4422		1.3889		H		1		UNL1		0.1476
49		H		2.2279		3.6543		1.1879		H		1		UNL1		0.1702
50		H		4.8138		-1.1525		0.4688		H		1		UNL1		0.3551
@<TRIPOS>BOND
1		39		14		1
2		41		18		1
3		42		18		1
4		40		15		1
5		43		20		1
6		6		5		2
7		44		20		1
8		14		15		ar
9		14		13		ar
10		18		17		1
11		18		19		1
12		15		16		ar
13		20		19		1
14		20		21		1
15		29		1		1
16		25		24		2
17		38		13		1
18		17		24		ar
19		17		4		ar
20		5		4		1
21		5		7		1
22		45		21		1
23		13		12		ar
24		24		26		ar
25		4		3		ar
26		21		23		1
27		21		22		1
28		16		7		ar
29		16		11		ar
30		30		1		1
31		1		31		1
32		1		2		1
33		7		8		ar
34		26		50		1
35		26		27		ar
36		3		27		ar
37		3		2		1
38		12		11		ar
39		12		37		1
40		11		10		ar
41		27		28		2
42		2		32		1
43		2		33		1
44		23		22		1
45		23		49		1
46		23		48		1
47		22		47		1
48		22		46		1
49		8		34		1
50		8		9		ar
51		10		9		ar
52		10		36		1
53		9		35		1

