@<TRIPOS>MOLECULE
LJ-2007-JMC-1778-3G
 38 39 0 0 0
SMALL
MULLIKEN_CHARGES
****
Gaussian 16 #p B3LYP/6-31G* opt
@<TRIPOS>ATOM
1		C		-1.5098		2.9458		0.8514		C.3		1		UNL1		-0.5557
2		C		-0.3207		2.1346		0.4088		C.ar		1		UNL1		0.0682
3		C		-0.1833		0.7804		0.5818		C.ar		1		UNL1		0.2475
4		C		-1.2927		-0.0386		1.2490		C.3		1		UNL1		-0.3286
5		C		-0.7372		-1.1918		1.9790		C.1		1		UNL1		0.3978
6		N		-0.3317		-2.1029		2.5732		N.1		1		UNL1		-0.4917
7		C		-2.3708		-0.4917		0.2516		C.ar		1		UNL1		0.1722
8		C		-3.7143		-0.1920		0.4980		C.ar		1		UNL1		-0.1822
9		C		-4.7052		-0.5972		-0.3988		C.ar		1		UNL1		-0.1285
10		C		-4.3584		-1.3073		-1.5479		C.ar		1		UNL1		-0.1238
11		C		-3.0176		-1.6116		-1.7959		C.ar		1		UNL1		-0.1306
12		C		-2.0273		-1.2073		-0.9020		C.ar		1		UNL1		-0.1689
13		N		0.8946		0.0385		0.1578		N.ar		1		UNL1		-0.5163
14		C		1.8750		0.6737		-0.4177		C.ar		1		UNL1		0.3320
15		S		3.3377		-0.1164		-1.0342		S.3		1		UNL1		0.1303
16		C		3.3948		-1.8037		-0.2337		C.3		1		UNL1		-0.2400
17		C		3.4378		-1.7357		1.2939		C.3		1		UNL1		-0.4527
18		C		2.3310		-2.7623		-0.7723		C.3		1		UNL1		-0.4502
19		N		1.8448		2.0228		-0.6168		N.ar		1		UNL1		-0.6481
20		C		0.7649		2.8562		-0.2470		C.ar		1		UNL1		0.5801
21		O		0.8223		4.0572		-0.4754		O.2		1		UNL1		-0.5200
22		H		-1.3781		3.9786		0.5227		H		1		UNL1		0.2019
23		H		-2.4446		2.5617		0.4278		H		1		UNL1		0.1714
24		H		-1.6172		2.9526		1.9444		H		1		UNL1		0.1633
25		H		-1.7812		0.5953		1.9974		H		1		UNL1		0.1953
26		H		-3.9901		0.3548		1.3967		H		1		UNL1		0.1350
27		H		-5.7454		-0.3573		-0.1963		H		1		UNL1		0.1385
28		H		-5.1278		-1.6237		-2.2466		H		1		UNL1		0.1376
29		H		-2.7414		-2.1669		-2.6881		H		1		UNL1		0.1390
30		H		-0.9857		-1.4432		-1.0975		H		1		UNL1		0.1631
31		H		4.3789		-2.1197		-0.6042		H		1		UNL1		0.1765
32		H		2.4786		-1.4109		1.7024		H		1		UNL1		0.2023
33		H		4.2267		-1.0626		1.6431		H		1		UNL1		0.1553
34		H		3.6449		-2.7387		1.6866		H		1		UNL1		0.1585
35		H		1.3383		-2.4741		-0.4225		H		1		UNL1		0.2029
36		H		2.5435		-3.7731		-0.4025		H		1		UNL1		0.1555
37		H		2.3338		-2.7906		-1.8662		H		1		UNL1		0.1537
38		H		2.6346		2.5044		-1.0354		H		1		UNL1		0.3593
@<TRIPOS>BOND
1		29		11		1
2		28		10		1
3		37		18		1
4		11		10		ar
5		11		12		ar
6		10		9		ar
7		30		12		1
8		38		19		1
9		15		14		1
10		15		16		1
11		12		7		ar
12		18		35		1
13		18		36		1
14		18		16		1
15		19		14		ar
16		19		20		ar
17		31		16		1
18		21		20		2
19		14		13		ar
20		9		27		1
21		9		8		ar
22		20		2		ar
23		16		17		1
24		13		3		ar
25		7		8		ar
26		7		4		1
27		2		3		ar
28		2		1		1
29		23		1		1
30		8		26		1
31		22		1		1
32		3		4		1
33		1		24		1
34		4		5		1
35		4		25		1
36		17		33		1
37		17		34		1
38		17		32		1
39		5		6		3

