@<TRIPOS>MOLECULE
LJ-2007-JMC-1778-3W
 52 54 0 0 0
SMALL
MULLIKEN_CHARGES
****
Gaussian 16 #p B3LYP/6-31G* opt
@<TRIPOS>ATOM
1		C		-8.8663		-1.8265		-0.6399		C.3		1		UNL1		-0.2195
2		O		-8.2765		-0.9943		0.3487		O.3		1		UNL1		-0.5023
3		C		-7.0437		-0.4720		0.1046		C.ar		1		UNL1		0.3817
4		C		-6.3040		-0.6843		-1.0655		C.ar		1		UNL1		-0.1944
5		C		-5.0476		-0.0912		-1.2027		C.ar		1		UNL1		-0.1700
6		C		-4.5095		0.7174		-0.1984		C.ar		1		UNL1		0.1411
7		C		-3.1493		1.3455		-0.3564		C.3		1		UNL1		-0.5474
8		S		-1.8740		0.2014		0.3654		S.3		1		UNL1		0.2247
9		C		-0.3484		1.0794		0.1477		C.ar		1		UNL1		0.3300
10		N		0.7215		0.5065		0.6130		N.ar		1		UNL1		-0.5130
11		C		1.9216		1.1540		0.4634		C.ar		1		UNL1		0.2332
12		C		3.0813		0.3457		1.0844		C.3		1		UNL1		-0.3387
13		C		3.0247		0.4951		2.5484		C.1		1		UNL1		0.3749
14		N		2.9794		0.6311		3.7003		N.1		1		UNL1		-0.4703
15		C		3.0600		-1.1241		0.6681		C.ar		1		UNL1		0.1783
16		C		2.3353		-2.0735		1.3998		C.ar		1		UNL1		-0.1389
17		C		2.2930		-3.4135		1.0277		C.ar		1		UNL1		-0.1358
18		C		2.9897		-3.8202		-0.1087		C.ar		1		UNL1		-0.0588
19		CL		2.9537		-5.5050		-0.5978		Cl		1		UNL1		-0.0066
20		C		3.7207		-2.9107		-0.8670		C.ar		1		UNL1		-0.1312
21		C		3.7454		-1.5742		-0.4683		C.ar		1		UNL1		-0.1246
22		CL		4.6831		-0.4610		-1.4614		Cl		1		UNL1		0.0003
23		C		2.0866		2.3887		-0.1261		C.ar		1		UNL1		0.0610
24		C		3.3963		3.1559		-0.2462		C.3		1		UNL1		-0.1513
25		C		3.7753		3.4387		-1.7144		C.3		1		UNL1		-0.4598
26		C		3.3645		4.4544		0.5880		C.3		1		UNL1		-0.4556
27		C		0.8856		3.0371		-0.6527		C.ar		1		UNL1		0.5855
28		O		0.8021		4.1264		-1.2093		O.2		1		UNL1		-0.5208
29		N		-0.3018		2.2860		-0.4766		N.ar		1		UNL1		-0.6502
30		C		-5.2624		0.9163		0.9706		C.ar		1		UNL1		-0.1634
31		C		-6.5122		0.3348		1.1234		C.ar		1		UNL1		-0.1710
32		H		-8.2557		-2.7183		-0.8315		H		1		UNL1		0.1570
33		H		-9.0217		-1.2844		-1.5818		H		1		UNL1		0.1555
34		H		-9.8328		-2.1308		-0.2351		H		1		UNL1		0.1761
35		H		-6.6913		-1.3006		-1.8684		H		1		UNL1		0.1400
36		H		-4.4815		-0.2643		-2.1150		H		1		UNL1		0.1371
37		H		-2.9211		1.5061		-1.4150		H		1		UNL1		0.1906
38		H		-3.1014		2.3017		0.1745		H		1		UNL1		0.1937
39		H		4.0322		0.7742		0.7646		H		1		UNL1		0.2158
40		H		1.7943		-1.7497		2.2821		H		1		UNL1		0.1783
41		H		1.7272		-4.1317		1.6103		H		1		UNL1		0.1665
42		H		4.2641		-3.2298		-1.7479		H		1		UNL1		0.1789
43		H		4.1942		2.5344		0.1718		H		1		UNL1		0.1332
44		H		3.8371		2.5093		-2.2911		H		1		UNL1		0.1479
45		H		4.7555		3.9282		-1.7551		H		1		UNL1		0.1407
46		H		3.0410		4.0945		-2.1872		H		1		UNL1		0.1841
47		H		3.1544		4.2421		1.6424		H		1		UNL1		0.1480
48		H		4.3374		4.9562		0.5315		H		1		UNL1		0.1434
49		H		2.6012		5.1398		0.2112		H		1		UNL1		0.1807
50		H		-1.1307		2.7391		-0.8434		H		1		UNL1		0.3561
51		H		-4.8627		1.5366		1.7692		H		1		UNL1		0.1405
52		H		-7.1003		0.4897		2.0222		H		1		UNL1		0.1486
@<TRIPOS>BOND
1		44		25		1
2		46		25		1
3		36		5		1
4		35		4		1
5		45		25		1
6		42		20		1
7		25		24		1
8		33		1		1
9		22		21		1
10		37		7		1
11		28		27		2
12		5		4		ar
13		5		6		ar
14		4		3		ar
15		20		21		ar
16		20		18		ar
17		50		29		1
18		32		1		1
19		27		29		ar
20		27		23		ar
21		1		34		1
22		1		2		1
23		19		18		1
24		29		9		ar
25		21		15		ar
26		7		6		1
27		7		38		1
28		7		8		1
29		24		23		1
30		24		43		1
31		24		26		1
32		6		30		ar
33		23		11		ar
34		18		17		ar
35		3		2		1
36		3		31		ar
37		9		8		1
38		9		10		ar
39		49		26		1
40		11		10		ar
41		11		12		1
42		48		26		1
43		26		47		1
44		15		12		1
45		15		16		ar
46		39		12		1
47		30		31		ar
48		30		51		1
49		17		16		ar
50		17		41		1
51		12		13		1
52		31		52		1
53		16		40		1
54		13		14		3

