@<TRIPOS>MOLECULE
LJ-2006-CPB-1249-29
 74 78 0 0 0
SMALL
MULLIKEN_CHARGES
****
Gaussian 16 #p B3LYP/6-31G* opt
@<TRIPOS>ATOM
1		C		1.5828		-3.9905		-2.8746		C.3		1		UNL1		-0.4536
2		C		1.3880		-3.5506		-1.4092		C.3		1		UNL1		-0.1287
3		C		2.6727		-3.7579		-0.5811		C.3		1		UNL1		-0.4604
4		C		0.8690		-2.1226		-1.3076		C.ar		1		UNL1		0.0307
5		C		-0.4203		-1.7945		-0.9986		C.ar		1		UNL1		0.1707
6		C		-1.5422		-2.8058		-0.9294		C.2		1		UNL1		0.2996
7		O		-1.6030		-3.7171		-1.7453		O.2		1		UNL1		-0.4434
8		C		-2.6479		-2.6351		0.0801		C.ar		1		UNL1		0.0230
9		C		-3.9255		-2.8989		-0.3900		C.ar		1		UNL1		-0.1687
10		C		-5.0611		-2.7474		0.4318		C.ar		1		UNL1		-0.1371
11		C		-4.9097		-2.3561		1.7420		C.ar		1		UNL1		-0.1811
12		C		-3.6198		-2.1242		2.2888		C.ar		1		UNL1		0.1248
13		C		-3.4597		-1.7715		3.6567		C.ar		1		UNL1		-0.1946
14		C		-2.2099		-1.5897		4.2000		C.ar		1		UNL1		-0.1303
15		C		-1.0618		-1.7640		3.3919		C.ar		1		UNL1		-0.1452
16		C		-1.1825		-2.0944		2.0603		C.ar		1		UNL1		-0.1856
17		C		-2.4582		-2.2681		1.4560		C.ar		1		UNL1		0.1119
18		N		-0.7954		-0.4652		-0.7110		N.ar		1		UNL1		-0.4466
19		C		-1.7745		0.1611		-1.6270		C.3		1		UNL1		-0.1986
20		C		-2.5097		1.2923		-0.9690		C.2		1		UNL1		-0.1133
21		C		-2.5815		2.5306		-1.4816		C.2		1		UNL1		-0.1768
22		C		-3.3034		3.6907		-0.9376		C.ar		1		UNL1		0.1750
23		C		-4.1046		3.6289		0.2180		C.ar		1		UNL1		-0.1821
24		C		-4.7594		4.7610		0.6932		C.ar		1		UNL1		-0.1300
25		C		-4.6350		5.9836		0.0260		C.ar		1		UNL1		-0.1281
26		C		-3.8486		6.0615		-1.1235		C.ar		1		UNL1		-0.1293
27		C		-3.1923		4.9268		-1.5980		C.ar		1		UNL1		-0.1960
28		C		0.3315		0.3586		-0.3227		C.ar		1		UNL1		-0.0270
29		N		1.4153		0.2571		-1.2910		N.ar		1		UNL1		-0.4412
30		C		2.3018		1.3971		-1.5564		C.3		1		UNL1		-0.2052
31		C		3.3035		1.6548		-0.4568		C.2		1		UNL1		-0.1152
32		C		4.5956		1.3058		-0.5517		C.2		1		UNL1		-0.1600
33		C		5.6522		1.4938		0.4536		C.ar		1		UNL1		0.1690
34		C		5.4726		2.2353		1.6365		C.ar		1		UNL1		-0.1815
35		C		6.5071		2.3744		2.5569		C.ar		1		UNL1		-0.1301
36		C		7.7503		1.7800		2.3193		C.ar		1		UNL1		-0.1288
37		C		7.9479		1.0472		1.1487		C.ar		1		UNL1		-0.1298
38		C		6.9109		0.9096		0.2273		C.ar		1		UNL1		-0.1937
39		C		1.8184		-1.0083		-1.6566		C.ar		1		UNL1		0.5935
40		O		2.8514		-1.2013		-2.3000		O.2		1		UNL1		-0.5349
41		H		2.3290		-3.3673		-3.3726		H		1		UNL1		0.1742
42		H		0.6355		-3.9235		-3.4177		H		1		UNL1		0.1556
43		H		1.9198		-5.0341		-2.9057		H		1		UNL1		0.1316
44		H		0.6192		-4.2018		-0.9844		H		1		UNL1		0.1406
45		H		2.5214		-3.4785		0.4692		H		1		UNL1		0.1282
46		H		3.5008		-3.1669		-0.9790		H		1		UNL1		0.1786
47		H		2.9592		-4.8160		-0.6052		H		1		UNL1		0.1381
48		H		-4.0403		-3.2160		-1.4218		H		1		UNL1		0.1581
49		H		-6.0496		-2.9390		0.0242		H		1		UNL1		0.1395
50		H		-5.7777		-2.2322		2.3854		H		1		UNL1		0.1369
51		H		-4.3503		-1.6611		4.2709		H		1		UNL1		0.1333
52		H		-2.0997		-1.3266		5.2484		H		1		UNL1		0.1346
53		H		-0.0739		-1.6434		3.8285		H		1		UNL1		0.1359
54		H		-0.2881		-2.2426		1.4663		H		1		UNL1		0.1441
55		H		-1.2881		0.4983		-2.5558		H		1		UNL1		0.1556
56		H		-2.4861		-0.6236		-1.9106		H		1		UNL1		0.1707
57		H		-3.0035		1.0391		-0.0322		H		1		UNL1		0.1483
58		H		-2.0519		2.7232		-2.4163		H		1		UNL1		0.1277
59		H		-4.2204		2.6872		0.7465		H		1		UNL1		0.1331
60		H		-5.3734		4.6902		1.5873		H		1		UNL1		0.1328
61		H		-5.1495		6.8649		0.3991		H		1		UNL1		0.1330
62		H		-3.7458		7.0052		-1.6526		H		1		UNL1		0.1337
63		H		-2.5807		4.9941		-2.4950		H		1		UNL1		0.1301
64		H		0.0082		1.4000		-0.2544		H		1		UNL1		0.1623
65		H		0.6620		0.0291		0.6734		H		1		UNL1		0.1616
66		H		2.8186		1.1797		-2.4926		H		1		UNL1		0.1884
67		H		1.6629		2.2766		-1.7090		H		1		UNL1		0.1456
68		H		2.9202		2.1228		0.4500		H		1		UNL1		0.1237
69		H		4.9136		0.8061		-1.4664		H		1		UNL1		0.1506
70		H		4.5186		2.7160		1.8334		H		1		UNL1		0.1252
71		H		6.3461		2.9534		3.4627		H		1		UNL1		0.1289
72		H		8.5566		1.8921		3.0391		H		1		UNL1		0.1298
73		H		8.9103		0.5825		0.9510		H		1		UNL1		0.1318
74		H		7.0697		0.3355		-0.6825		H		1		UNL1		0.1362
@<TRIPOS>BOND
1		42		1		1
2		41		1		1
3		43		1		1
4		1		2		1
5		55		19		1
6		63		27		1
7		66		30		1
8		58		21		1
9		40		39		2
10		56		19		1
11		7		6		2
12		67		30		1
13		39		4		ar
14		39		29		ar
15		62		26		1
16		19		20		1
17		19		18		1
18		27		26		ar
19		27		22		ar
20		30		29		1
21		30		31		1
22		21		20		2
23		21		22		1
24		69		32		1
25		48		9		1
26		2		4		1
27		2		44		1
28		2		3		1
29		4		5		ar
30		29		28		ar
31		26		25		ar
32		5		6		1
33		5		18		ar
34		46		3		1
35		20		57		1
36		22		23		ar
37		6		8		1
38		18		28		ar
39		74		38		1
40		47		3		1
41		3		45		1
42		32		31		2
43		32		33		1
44		31		68		1
45		9		8		ar
46		9		10		ar
47		28		64		1
48		28		65		1
49		49		10		1
50		25		61		1
51		25		24		ar
52		8		17		ar
53		23		24		ar
54		23		59		1
55		38		33		ar
56		38		37		ar
57		10		11		ar
58		33		34		ar
59		24		60		1
60		73		37		1
61		37		36		ar
62		17		16		ar
63		17		12		ar
64		54		16		1
65		34		70		1
66		34		35		ar
67		11		12		ar
68		11		50		1
69		16		15		ar
70		12		13		ar
71		36		35		ar
72		36		72		1
73		35		71		1
74		15		53		1
75		15		14		ar
76		13		14		ar
77		13		51		1
78		14		52		1

