@<TRIPOS>MOLECULE
LJ-2006-CPB-1249-16
 49 52 0 0 0
SMALL
MULLIKEN_CHARGES
****
Gaussian 16 #p B3LYP/6-31G* opt
@<TRIPOS>ATOM
1		C		-1.0757		4.2633		-0.2935		C.3		1		UNL1		-0.4471
2		C		-0.9063		3.1065		0.7090		C.3		1		UNL1		-0.3319
3		C		-1.7593		1.9095		0.3565		C.ar		1		UNL1		0.0224
4		C		-1.3236		0.8081		-0.3181		C.ar		1		UNL1		0.2358
5		C		0.1220		0.7353		-0.8152		C.2		1		UNL1		0.3287
6		O		0.2966		0.9093		-2.0162		O.2		1		UNL1		-0.4664
7		C		1.2054		0.4734		0.1657		C.ar		1		UNL1		0.0491
8		C		0.8439		-0.0144		1.4172		C.ar		1		UNL1		-0.1787
9		C		1.8019		-0.3424		2.3942		C.ar		1		UNL1		-0.1329
10		C		3.1381		-0.1659		2.1207		C.ar		1		UNL1		-0.1733
11		C		3.5700		0.3383		0.8658		C.ar		1		UNL1		0.1325
12		C		4.9538		0.5238		0.6065		C.ar		1		UNL1		-0.1958
13		C		5.3861		1.0148		-0.6033		C.ar		1		UNL1		-0.1268
14		C		4.4404		1.3399		-1.6005		C.ar		1		UNL1		-0.1357
15		C		3.0881		1.1695		-1.3850		C.ar		1		UNL1		-0.1890
16		C		2.6037		0.6633		-0.1477		C.ar		1		UNL1		0.0720
17		N		-2.1724		-0.2291		-0.7059		N.ar		1		UNL1		-0.5401
18		C		-1.7151		-1.3748		-1.5334		C.3		1		UNL1		-0.2817
19		C		-1.0001		-2.4624		-0.7561		C.ar		1		UNL1		0.1587
20		C		-1.6642		-3.1653		0.2605		C.ar		1		UNL1		-0.1855
21		C		-1.0113		-4.1817		0.9561		C.ar		1		UNL1		-0.1308
22		C		0.3086		-4.5161		0.6396		C.ar		1		UNL1		-0.1280
23		C		0.9713		-3.8292		-0.3772		C.ar		1		UNL1		-0.1266
24		C		0.3194		-2.8060		-1.0693		C.ar		1		UNL1		-0.1891
25		C		-3.5285		-0.2255		-0.3648		C.ar		1		UNL1		0.7969
26		O		-4.2957		-1.1359		-0.6439		O.2		1		UNL1		-0.5262
27		N		-3.9401		0.8969		0.3265		N.ar		1		UNL1		-0.7042
28		C		-3.1770		2.0042		0.7141		C.ar		1		UNL1		0.6085
29		O		-3.6979		2.9345		1.3143		O.2		1		UNL1		-0.5101
30		H		-0.7682		3.9588		-1.3002		H		1		UNL1		0.1514
31		H		-2.1198		4.5880		-0.3327		H		1		UNL1		0.1710
32		H		-0.4637		5.1213		0.0070		H		1		UNL1		0.1460
33		H		0.1484		2.8245		0.7689		H		1		UNL1		0.1459
34		H		-1.2062		3.4524		1.7040		H		1		UNL1		0.1690
35		H		-0.2052		-0.1629		1.6468		H		1		UNL1		0.1604
36		H		1.4789		-0.7325		3.3544		H		1		UNL1		0.1463
37		H		3.8897		-0.4118		2.8673		H		1		UNL1		0.1443
38		H		5.6660		0.2714		1.3883		H		1		UNL1		0.1367
39		H		6.4467		1.1546		-0.7926		H		1		UNL1		0.1381
40		H		4.7814		1.7306		-2.5554		H		1		UNL1		0.1400
41		H		2.3807		1.4137		-2.1641		H		1		UNL1		0.1829
42		H		-2.6255		-1.7722		-1.9837		H		1		UNL1		0.2133
43		H		-1.0820		-0.9802		-2.3277		H		1		UNL1		0.1974
44		H		-2.6982		-2.9217		0.4887		H		1		UNL1		0.1596
45		H		-1.5365		-4.7216		1.7397		H		1		UNL1		0.1338
46		H		0.8142		-5.3118		1.1804		H		1		UNL1		0.1312
47		H		1.9967		-4.0841		-0.6314		H		1		UNL1		0.1335
48		H		0.8416		-2.2675		-1.8567		H		1		UNL1		0.1405
49		H		-4.9238		0.9170		0.5715		H		1		UNL1		0.3542
@<TRIPOS>BOND
1		40		14		1
2		43		18		1
3		41		15		1
4		6		5		2
5		42		18		1
6		48		24		1
7		14		15		ar
8		14		13		ar
9		18		19		1
10		18		17		1
11		15		16		ar
12		30		1		1
13		24		19		ar
14		24		23		ar
15		5		4		1
16		5		7		1
17		39		13		1
18		19		20		ar
19		17		25		ar
20		17		4		ar
21		26		25		2
22		47		23		1
23		13		12		ar
24		23		22		ar
25		25		27		ar
26		31		1		1
27		4		3		ar
28		1		32		1
29		1		2		1
30		16		7		ar
31		16		11		ar
32		7		8		ar
33		20		44		1
34		20		21		ar
35		27		49		1
36		27		28		ar
37		3		2		1
38		3		28		ar
39		12		11		ar
40		12		38		1
41		22		21		ar
42		22		46		1
43		2		33		1
44		2		34		1
45		28		29		2
46		11		10		ar
47		21		45		1
48		8		35		1
49		8		9		ar
50		10		9		ar
51		10		37		1
52		9		36		1

