@<TRIPOS>MOLECULE
LJ-2007-EJMC-198-19
 46 48 0 0 0
SMALL
MULLIKEN_CHARGES
****
Gaussian 16 #p B3LYP/6-31G* opt
@<TRIPOS>ATOM
1		C		0.7198		-4.8267		-0.1565		C.3		1		UNL1		-0.4640
2		C		0.0281		-3.4670		-0.1231		C.3		1		UNL1		-0.0341
3		O		0.8810		-2.4101		0.3237		O.3		1		UNL1		-0.4774
4		C		1.8626		-2.0215		-0.6145		C.3		1		UNL1		0.0774
5		N		2.2738		-0.6615		-0.2800		N.ar		1		UNL1		-0.5671
6		C		1.3372		0.3745		-0.2250		C.ar		1		UNL1		0.2489
7		C		-0.0764		0.0164		-0.6874		C.2		1		UNL1		0.3433
8		O		-0.2013		-0.3049		-1.8636		O.2		1		UNL1		-0.4732
9		C		-1.1989		0.1031		0.2837		C.ar		1		UNL1		0.0385
10		C		-0.8923		0.0259		1.6367		C.ar		1		UNL1		-0.1735
11		C		-1.8937		0.0460		2.6261		C.ar		1		UNL1		-0.1389
12		C		-3.2138		0.1618		2.2566		C.ar		1		UNL1		-0.1752
13		C		-3.5868		0.2549		0.8900		C.ar		1		UNL1		0.1313
14		C		-4.9532		0.3859		0.5244		C.ar		1		UNL1		-0.1957
15		C		-5.3250		0.4810		-0.7960		C.ar		1		UNL1		-0.1274
16		C		-4.3349		0.4493		-1.8036		C.ar		1		UNL1		-0.1367
17		C		-2.9991		0.3187		-1.4864		C.ar		1		UNL1		-0.1866
18		C		-2.5766		0.2161		-0.1320		C.ar		1		UNL1		0.0744
19		C		1.6811		1.6566		0.0774		C.ar		1		UNL1		0.0199
20		C		0.7484		2.8451		0.0465		C.3		1		UNL1		-0.3329
21		C		0.8865		3.6664		-1.2493		C.3		1		UNL1		-0.4474
22		C		3.0848		1.9551		0.3890		C.ar		1		UNL1		0.6112
23		O		3.5234		3.0592		0.6804		O.2		1		UNL1		-0.5071
24		N		3.9367		0.8462		0.3460		N.ar		1		UNL1		-0.7002
25		C		3.6260		-0.4614		0.0247		C.ar		1		UNL1		0.7824
26		O		4.4646		-1.3472		0.0078		O.2		1		UNL1		-0.5114
27		H		-0.0028		-5.6085		-0.4178		H		1		UNL1		0.1513
28		H		1.1468		-5.0640		0.8234		H		1		UNL1		0.1646
29		H		1.5252		-4.8575		-0.8988		H		1		UNL1		0.1566
30		H		-0.7992		-3.4756		0.5925		H		1		UNL1		0.1559
31		H		-0.3837		-3.2105		-1.1113		H		1		UNL1		0.1447
32		H		1.4490		-2.0381		-1.6298		H		1		UNL1		0.1717
33		H		2.7631		-2.6345		-0.5595		H		1		UNL1		0.1973
34		H		0.1433		-0.0778		1.9395		H		1		UNL1		0.1620
35		H		-1.6165		-0.0296		3.6732		H		1		UNL1		0.1444
36		H		-3.9968		0.1841		3.0110		H		1		UNL1		0.1425
37		H		-5.7006		0.4130		1.3137		H		1		UNL1		0.1357
38		H		-6.3724		0.5823		-1.0660		H		1		UNL1		0.1368
39		H		-4.6293		0.5273		-2.8467		H		1		UNL1		0.1384
40		H		-2.2574		0.2812		-2.2716		H		1		UNL1		0.1783
41		H		0.9926		3.4870		0.8998		H		1		UNL1		0.1691
42		H		-0.2890		2.5244		0.1682		H		1		UNL1		0.1497
43		H		1.9099		4.0350		-1.3646		H		1		UNL1		0.1717
44		H		0.6336		3.0618		-2.1276		H		1		UNL1		0.1488
45		H		0.2140		4.5312		-1.2249		H		1		UNL1		0.1468
46		H		4.9125		1.0182		0.5608		H		1		UNL1		0.3551
@<TRIPOS>BOND
1		39		16		1
2		40		17		1
3		44		21		1
4		8		7		2
5		16		17		ar
6		16		15		ar
7		32		4		1
8		17		18		ar
9		43		21		1
10		21		45		1
11		21		20		1
12		31		2		1
13		38		15		1
14		29		1		1
15		15		14		ar
16		7		6		1
17		7		9		1
18		4		33		1
19		4		5		1
20		4		3		1
21		27		1		1
22		5		6		ar
23		5		25		ar
24		6		19		ar
25		1		2		1
26		1		28		1
27		18		9		ar
28		18		13		ar
29		2		3		1
30		2		30		1
31		26		25		2
32		25		24		ar
33		20		19		1
34		20		42		1
35		20		41		1
36		19		22		ar
37		9		10		ar
38		24		22		ar
39		24		46		1
40		22		23		2
41		14		13		ar
42		14		37		1
43		13		12		ar
44		10		34		1
45		10		11		ar
46		12		11		ar
47		12		36		1
48		11		35		1

