@<TRIPOS>MOLECULE
LJ-2006-CPB-1249-13
 49 51 0 0 0
SMALL
MULLIKEN_CHARGES
****
Gaussian 16 #p B3LYP/6-31G* opt
@<TRIPOS>ATOM
1		C		-0.4600		-3.1237		2.6555		C.3		1		UNL1		-0.4469
2		C		-0.1117		-3.0496		1.1581		C.3		1		UNL1		-0.3289
3		C		-1.0563		-2.1594		0.3850		C.ar		1		UNL1		0.0211
4		C		-0.8060		-0.8568		0.0797		C.ar		1		UNL1		0.2250
5		C		0.4825		-0.1877		0.5644		C.2		1		UNL1		0.3204
6		O		0.4374		0.3490		1.6647		O.2		1		UNL1		-0.4605
7		C		1.6835		-0.2386		-0.3106		C.ar		1		UNL1		0.0564
8		C		1.5603		-0.8782		-1.5409		C.ar		1		UNL1		-0.1945
9		C		2.6323		-0.9664		-2.4482		C.ar		1		UNL1		-0.1356
10		C		3.8458		-0.4084		-2.1197		C.ar		1		UNL1		-0.1723
11		C		4.0367		0.2553		-0.8796		C.ar		1		UNL1		0.1333
12		C		5.2990		0.8222		-0.5602		C.ar		1		UNL1		-0.1953
13		C		5.5002		1.4675		0.6374		C.ar		1		UNL1		-0.1260
14		C		4.4368		1.5670		1.5611		C.ar		1		UNL1		-0.1348
15		C		3.1965		1.0286		1.2848		C.ar		1		UNL1		-0.1888
16		C		2.9506		0.3546		0.0574		C.ar		1		UNL1		0.0692
17		N		-1.7083		-0.0433		-0.5955		N.ar		1		UNL1		-0.5272
18		C		-1.4776		1.4132		-0.7935		C.3		1		UNL1		-0.2264
19		C		-1.9794		2.2441		0.3566		C.2		1		UNL1		-0.1740
20		C		-2.9662		3.1535		0.3245		C.2		1		UNL1		0.2035
21		C		-3.7936		3.4975		-0.8902		C.3		1		UNL1		-0.5246
22		C		-3.3139		3.9365		1.5681		C.3		1		UNL1		-0.5090
23		C		-2.9516		-0.5247		-1.0142		C.ar		1		UNL1		0.7857
24		O		-3.7670		0.1570		-1.6164		O.2		1		UNL1		-0.5163
25		N		-3.1772		-1.8532		-0.7040		N.ar		1		UNL1		-0.7021
26		C		-2.3411		-2.7383		-0.0087		C.ar		1		UNL1		0.6051
27		O		-2.7010		-3.8879		0.2074		O.2		1		UNL1		-0.5130
28		H		-1.4769		-3.5040		2.7927		H		1		UNL1		0.1685
29		H		0.2288		-3.7981		3.1770		H		1		UNL1		0.1432
30		H		-0.3921		-2.1341		3.1199		H		1		UNL1		0.1576
31		H		-0.1675		-4.0553		0.7275		H		1		UNL1		0.1680
32		H		0.9211		-2.7047		1.0364		H		1		UNL1		0.1388
33		H		0.6126		-1.3311		-1.8108		H		1		UNL1		0.1615
34		H		2.4939		-1.4748		-3.3975		H		1		UNL1		0.1474
35		H		4.6838		-0.4691		-2.8101		H		1		UNL1		0.1463
36		H		6.1049		0.7343		-1.2847		H		1		UNL1		0.1377
37		H		6.4691		1.8980		0.8741		H		1		UNL1		0.1392
38		H		4.5957		2.0760		2.5080		H		1		UNL1		0.1412
39		H		2.3945		1.1137		2.0032		H		1		UNL1		0.1875
40		H		-1.9605		1.6735		-1.7333		H		1		UNL1		0.1910
41		H		-0.4000		1.5484		-0.9272		H		1		UNL1		0.1673
42		H		-1.4585		2.0714		1.2970		H		1		UNL1		0.1482
43		H		-4.8539		3.5624		-0.6143		H		1		UNL1		0.1553
44		H		-3.5140		4.4845		-1.2851		H		1		UNL1		0.1502
45		H		-3.7118		2.7593		-1.6891		H		1		UNL1		0.1886
46		H		-3.2213		5.0170		1.3897		H		1		UNL1		0.1526
47		H		-4.3576		3.7588		1.8617		H		1		UNL1		0.1566
48		H		-2.6704		3.6744		2.4133		H		1		UNL1		0.1570
49		H		-4.0758		-2.2194		-0.9981		H		1		UNL1		0.3527
@<TRIPOS>BOND
1		34		9		1
2		35		10		1
3		9		10		ar
4		9		8		ar
5		10		11		ar
6		33		8		1
7		40		18		1
8		45		21		1
9		24		23		2
10		8		7		ar
11		44		21		1
12		36		12		1
13		23		25		ar
14		23		17		ar
15		49		25		1
16		41		18		1
17		21		43		1
18		21		20		1
19		11		12		ar
20		11		16		ar
21		18		17		1
22		18		19		1
23		25		26		ar
24		17		4		ar
25		12		13		ar
26		7		16		ar
27		7		5		1
28		26		27		2
29		26		3		ar
30		16		15		ar
31		4		3		ar
32		4		5		1
33		20		19		2
34		20		22		1
35		19		42		1
36		3		2		1
37		5		6		2
38		13		37		1
39		13		14		ar
40		31		2		1
41		32		2		1
42		2		1		1
43		15		14		ar
44		15		39		1
45		46		22		1
46		14		38		1
47		22		47		1
48		22		48		1
49		1		28		1
50		1		30		1
51		1		29		1

