@<TRIPOS>MOLECULE
LJ-2007-EJMC-198-25
 52 54 0 0 0
SMALL
MULLIKEN_CHARGES
****
Gaussian 16 #p B3LYP/6-31G* opt
@<TRIPOS>ATOM
1		C		1.2367		4.1537		1.3387		C.3		1		UNL1		-0.5092
2		C		0.6373		3.4550		0.1416		C.2		1		UNL1		0.1962
3		C		1.5787		3.2990		-1.0277		C.3		1		UNL1		-0.5255
4		C		-0.6383		3.0379		0.1690		C.2		1		UNL1		-0.1718
5		C		-1.4135		2.3750		-0.9361		C.3		1		UNL1		-0.2328
6		N		-2.0919		1.1277		-0.4907		N.ar		1		UNL1		-0.5448
7		C		-1.4395		-0.1003		-0.4010		C.ar		1		UNL1		0.2313
8		C		0.0187		-0.1205		-0.8686		C.2		1		UNL1		0.3199
9		O		0.2125		0.0286		-2.0694		O.2		1		UNL1		-0.4654
10		C		1.0940		-0.3177		0.1385		C.ar		1		UNL1		0.0549
11		C		0.7740		-0.1199		1.4770		C.ar		1		UNL1		-0.1805
12		C		1.7377		-0.2293		2.4977		C.ar		1		UNL1		-0.1392
13		C		3.0338		-0.5586		2.1753		C.ar		1		UNL1		-0.1743
14		C		3.4189		-0.7870		0.8282		C.ar		1		UNL1		0.1316
15		C		4.7585		-1.1405		0.5158		C.ar		1		UNL1		-0.1957
16		C		5.1433		-1.3709		-0.7842		C.ar		1		UNL1		-0.1269
17		C		4.1929		-1.2553		-1.8228		C.ar		1		UNL1		-0.1359
18		C		2.8840		-0.9091		-1.5575		C.ar		1		UNL1		-0.1876
19		C		2.4494		-0.6616		-0.2261		C.ar		1		UNL1		0.0720
20		C		-2.0665		-1.2618		-0.0489		C.ar		1		UNL1		0.0335
21		C		-1.3780		-2.6218		-0.0461		C.3		1		UNL1		-0.1471
22		C		-1.3791		-3.2797		1.3473		C.3		1		UNL1		-0.4560
23		C		-1.9877		-3.5576		-1.1110		C.3		1		UNL1		-0.4540
24		C		-3.4932		-1.2059		0.2885		C.ar		1		UNL1		0.6047
25		O		-4.1983		-2.1502		0.6245		O.2		1		UNL1		-0.5123
26		N		-4.0498		0.0760		0.2151		N.ar		1		UNL1		-0.6987
27		C		-3.4431		1.2599		-0.1568		C.ar		1		UNL1		0.7811
28		O		-4.0447		2.3225		-0.1835		O.2		1		UNL1		-0.5176
29		H		0.5119		4.2742		2.1496		H		1		UNL1		0.1551
30		H		2.0974		3.5915		1.7268		H		1		UNL1		0.1554
31		H		1.6117		5.1498		1.0663		H		1		UNL1		0.1559
32		H		1.1837		2.6740		-1.8311		H		1		UNL1		0.1696
33		H		2.5261		2.8543		-0.6965		H		1		UNL1		0.1603
34		H		1.8271		4.2810		-1.4537		H		1		UNL1		0.1588
35		H		-1.2250		3.2256		1.0684		H		1		UNL1		0.1313
36		H		-0.8058		2.1347		-1.8057		H		1		UNL1		0.1931
37		H		-2.2282		3.0270		-1.2580		H		1		UNL1		0.2095
38		H		-0.2433		0.1408		1.7461		H		1		UNL1		0.1594
39		H		1.4503		-0.0558		3.5302		H		1		UNL1		0.1458
40		H		3.7877		-0.6515		2.9536		H		1		UNL1		0.1446
41		H		5.4743		-1.2294		1.3294		H		1		UNL1		0.1370
42		H		6.1697		-1.6427		-1.0138		H		1		UNL1		0.1385
43		H		4.4961		-1.4410		-2.8496		H		1		UNL1		0.1405
44		H		2.1744		-0.8138		-2.3666		H		1		UNL1		0.1827
45		H		-0.3312		-2.4647		-0.3276		H		1		UNL1		0.1349
46		H		-0.8431		-4.2354		1.3093		H		1		UNL1		0.1397
47		H		-0.8774		-2.6436		2.0856		H		1		UNL1		0.1341
48		H		-2.4001		-3.4686		1.6870		H		1		UNL1		0.1843
49		H		-3.0350		-3.7733		-0.8858		H		1		UNL1		0.1817
50		H		-1.9303		-3.1074		-2.1085		H		1		UNL1		0.1448
51		H		-1.4359		-4.5047		-1.1346		H		1		UNL1		0.1397
52		H		-5.0332		0.1492		0.4511		H		1		UNL1		0.3534
@<TRIPOS>BOND
1		43		17		1
2		44		18		1
3		50		23		1
4		9		8		2
5		32		3		1
6		17		18		ar
7		17		16		ar
8		36		5		1
9		18		19		ar
10		34		3		1
11		37		5		1
12		51		23		1
13		23		49		1
14		23		21		1
15		3		33		1
16		3		2		1
17		42		16		1
18		5		6		1
19		5		4		1
20		8		7		1
21		8		10		1
22		16		15		ar
23		6		7		ar
24		6		27		ar
25		7		20		ar
26		45		21		1
27		19		10		ar
28		19		14		ar
29		28		27		2
30		27		26		ar
31		20		21		1
32		20		24		ar
33		21		22		1
34		10		11		ar
35		2		4		2
36		2		1		1
37		4		35		1
38		26		24		ar
39		26		52		1
40		24		25		2
41		15		14		ar
42		15		41		1
43		14		13		ar
44		31		1		1
45		46		22		1
46		1		30		1
47		1		29		1
48		22		48		1
49		22		47		1
50		11		38		1
51		11		12		ar
52		13		12		ar
53		13		40		1
54		12		39		1

