@<TRIPOS>MOLECULE
LJ-2007-JMC-1778-4C
 45 48 0 0 0
SMALL
MULLIKEN_CHARGES
****
Gaussian 16 #p B3LYP/6-31G* opt
@<TRIPOS>ATOM
1		O		4.0014		1.1161		1.1572		O.2		1		UNL1		-0.4667
2		C		4.4694		0.0658		0.7221		C.2		1		UNL1		0.4299
3		C		3.7268		-1.2320		1.0232		C.3		1		UNL1		-0.5704
4		S		2.3683		-1.5734		-0.1794		S.3		1		UNL1		0.2191
5		C		0.9981		-0.5958		0.4254		C.ar		1		UNL1		0.3227
6		N		-0.1654		-1.0028		0.0114		N.ar		1		UNL1		-0.4855
7		C		-1.2508		-0.2523		0.3980		C.ar		1		UNL1		0.1932
8		C		-2.5960		-0.8263		-0.0246		C.2		1		UNL1		0.3583
9		O		-2.7313		-2.0391		0.0218		O.2		1		UNL1		-0.4394
10		C		-3.6827		0.1078		-0.4500		C.ar		1		UNL1		0.0303
11		C		-3.3255		1.2989		-1.0677		C.ar		1		UNL1		-0.1894
12		C		-4.2921		2.1941		-1.5709		C.ar		1		UNL1		-0.1359
13		C		-5.6283		1.9029		-1.4319		C.ar		1		UNL1		-0.1765
14		C		-6.0537		0.7058		-0.7970		C.ar		1		UNL1		0.1310
15		C		-7.4370		0.4208		-0.6458		C.ar		1		UNL1		-0.1961
16		C		-7.8564		-0.7355		-0.0308		C.ar		1		UNL1		-0.1275
17		C		-6.9000		-1.6539		0.4583		C.ar		1		UNL1		-0.1375
18		C		-5.5492		-1.4123		0.3246		C.ar		1		UNL1		-0.1821
19		C		-5.0783		-0.2270		-0.3050		C.ar		1		UNL1		0.0770
20		C		-1.1623		0.8375		1.2201		C.ar		1		UNL1		-0.2343
21		C		0.1269		1.2857		1.7125		C.ar		1		UNL1		0.6083
22		O		0.3537		2.2395		2.4399		O.2		1		UNL1		-0.5110
23		N		1.1975		0.4838		1.2264		N.ar		1		UNL1		-0.6636
24		C		5.7159		0.0615		-0.0876		C.ar		1		UNL1		0.0829
25		C		6.3960		1.2827		-0.2455		C.ar		1		UNL1		-0.1499
26		C		7.5668		1.3448		-0.9920		C.ar		1		UNL1		-0.1305
27		C		8.0703		0.1901		-1.5997		C.ar		1		UNL1		-0.1144
28		C		7.3992		-1.0257		-1.4571		C.ar		1		UNL1		-0.1331
29		C		6.2298		-1.0928		-0.7018		C.ar		1		UNL1		-0.1744
30		H		4.3650		-2.1157		0.9784		H		1		UNL1		0.2070
31		H		3.3071		-1.1705		2.0303		H		1		UNL1		0.2222
32		H		-2.2754		1.5425		-1.1872		H		1		UNL1		0.1509
33		H		-3.9730		3.1086		-2.0620		H		1		UNL1		0.1398
34		H		-6.3840		2.5883		-1.8085		H		1		UNL1		0.1384
35		H		-8.1593		1.1400		-1.0249		H		1		UNL1		0.1321
36		H		-8.9168		-0.9443		0.0811		H		1		UNL1		0.1332
37		H		-7.2331		-2.5670		0.9444		H		1		UNL1		0.1355
38		H		-4.8308		-2.1348		0.6861		H		1		UNL1		0.1758
39		H		-2.0339		1.4014		1.5280		H		1		UNL1		0.1683
40		H		2.1427		0.8274		1.4350		H		1		UNL1		0.3974
41		H		5.9853		2.1675		0.2289		H		1		UNL1		0.1757
42		H		8.0879		2.2912		-1.1047		H		1		UNL1		0.1493
43		H		8.9843		0.2389		-2.1853		H		1		UNL1		0.1488
44		H		7.7855		-1.9218		-1.9337		H		1		UNL1		0.1477
45		H		5.7192		-2.0459		-0.6115		H		1		UNL1		0.1435
@<TRIPOS>BOND
1		43		27		1
2		33		12		1
3		44		28		1
4		34		13		1
5		27		28		ar
6		27		26		ar
7		12		13		ar
8		12		11		ar
9		28		29		ar
10		13		14		ar
11		32		11		1
12		42		26		1
13		11		10		ar
14		35		15		1
15		26		25		ar
16		14		15		ar
17		14		19		ar
18		29		45		1
19		29		24		ar
20		15		16		ar
21		10		19		ar
22		10		8		1
23		19		18		ar
24		25		24		ar
25		25		41		1
26		4		5		1
27		4		3		1
28		24		2		1
29		16		36		1
30		16		17		ar
31		8		9		2
32		8		7		1
33		6		7		ar
34		6		5		ar
35		18		17		ar
36		18		38		1
37		7		20		ar
38		5		23		ar
39		17		37		1
40		2		3		1
41		2		1		2
42		30		3		1
43		3		31		1
44		20		39		1
45		20		21		ar
46		23		40		1
47		23		21		ar
48		21		22		2

