@<TRIPOS>MOLECULE
LJ-2007-JMC-1778-3U
 58 61 0 0 0
SMALL
MULLIKEN_CHARGES
****
Gaussian 16 #p B3LYP/6-31G* opt
@<TRIPOS>ATOM
1		C		-7.5718		0.9840		-2.5007		C.3		1		UNL1		-0.2217
2		O		-6.9167		-0.2613		-2.3005		O.3		1		UNL1		-0.5021
3		C		-6.1405		-0.4119		-1.1940		C.ar		1		UNL1		0.3806
4		C		-5.4998		-1.6573		-1.0651		C.ar		1		UNL1		-0.1689
5		C		-4.6790		-1.9135		0.0209		C.ar		1		UNL1		-0.1659
6		C		-4.4717		-0.9431		1.0181		C.ar		1		UNL1		0.1426
7		C		-3.6111		-1.2210		2.2288		C.3		1		UNL1		-0.5500
8		S		-1.8867		-1.8362		1.9314		S.3		1		UNL1		0.2044
9		C		-1.0197		-0.4348		1.2658		C.ar		1		UNL1		0.3182
10		N		0.2779		-0.4970		1.3038		N.ar		1		UNL1		-0.4916
11		C		0.9958		0.5506		0.7730		C.ar		1		UNL1		0.2022
12		C		2.5085		0.3478		0.8901		C.3		1		UNL1		-0.3214
13		C		2.8517		-0.0908		2.2582		C.1		1		UNL1		0.3853
14		N		3.1713		-0.4031		3.3294		N.1		1		UNL1		-0.4755
15		C		3.1273		-0.5985		-0.1573		C.ar		1		UNL1		0.1060
16		C		2.3542		-1.5173		-0.8350		C.ar		1		UNL1		-0.1768
17		C		2.9124		-2.3614		-1.8238		C.ar		1		UNL1		-0.1380
18		C		4.2480		-2.2798		-2.1303		C.ar		1		UNL1		-0.1828
19		C		5.0890		-1.3600		-1.4497		C.ar		1		UNL1		0.1358
20		C		6.4740		-1.2722		-1.7514		C.ar		1		UNL1		-0.1933
21		C		7.2932		-0.3914		-1.0839		C.ar		1		UNL1		-0.1307
22		C		6.7549		0.4391		-0.0749		C.ar		1		UNL1		-0.1341
23		C		5.4145		0.3826		0.2399		C.ar		1		UNL1		-0.1932
24		C		4.5329		-0.5070		-0.4366		C.ar		1		UNL1		0.0916
25		C		0.4325		1.6789		0.2198		C.ar		1		UNL1		0.0511
26		C		1.1369		2.9017		-0.3614		C.3		1		UNL1		-0.1641
27		C		2.0958		2.5983		-1.5291		C.3		1		UNL1		-0.4533
28		C		1.7906		3.7866		0.7207		C.3		1		UNL1		-0.4485
29		C		-1.0310		1.7502		0.1843		C.ar		1		UNL1		0.5677
30		O		-1.7135		2.6641		-0.2658		O.2		1		UNL1		-0.5241
31		N		-1.6826		0.6228		0.7316		N.ar		1		UNL1		-0.6491
32		C		-5.1187		0.2887		0.8800		C.ar		1		UNL1		-0.2125
33		C		-5.9471		0.5654		-0.2134		C.ar		1		UNL1		-0.1821
34		H		-8.2780		1.2013		-1.6889		H		1		UNL1		0.1556
35		H		-8.1198		0.8843		-3.4389		H		1		UNL1		0.1763
36		H		-6.8510		1.8072		-2.5855		H		1		UNL1		0.1619
37		H		-5.6614		-2.4032		-1.8369		H		1		UNL1		0.1498
38		H		-4.1807		-2.8764		0.0974		H		1		UNL1		0.1489
39		H		-4.0264		-2.0396		2.8281		H		1		UNL1		0.2091
40		H		-3.5585		-0.3467		2.8847		H		1		UNL1		0.1971
41		H		2.9787		1.3246		0.7646		H		1		UNL1		0.1923
42		H		1.2999		-1.6070		-0.6030		H		1		UNL1		0.1520
43		H		2.2714		-3.0718		-2.3382		H		1		UNL1		0.1345
44		H		4.6834		-2.9208		-2.8931		H		1		UNL1		0.1326
45		H		6.8771		-1.9229		-2.5239		H		1		UNL1		0.1327
46		H		8.3514		-0.3364		-1.3236		H		1		UNL1		0.1334
47		H		7.4047		1.1238		0.4630		H		1		UNL1		0.1355
48		H		5.0421		1.0136		1.0396		H		1		UNL1		0.1413
49		H		0.3200		3.4959		-0.7821		H		1		UNL1		0.1797
50		H		3.0096		2.0800		-1.2218		H		1		UNL1		0.1516
51		H		2.4010		3.5386		-2.0033		H		1		UNL1		0.1463
52		H		1.6058		1.9824		-2.2907		H		1		UNL1		0.1542
53		H		2.1634		4.7134		0.2690		H		1		UNL1		0.1491
54		H		1.0648		4.0574		1.4948		H		1		UNL1		0.1574
55		H		2.6393		3.3014		1.2172		H		1		UNL1		0.1455
56		H		-2.6947		0.6247		0.6329		H		1		UNL1		0.3679
57		H		-4.9881		1.0553		1.6415		H		1		UNL1		0.1436
58		H		-6.4231		1.5360		-0.2853		H		1		UNL1		0.1456
@<TRIPOS>BOND
1		35		1		1
2		44		18		1
3		36		1		1
4		45		20		1
5		1		2		1
6		1		34		1
7		43		17		1
8		2		3		1
9		52		27		1
10		18		17		ar
11		18		19		ar
12		51		27		1
13		37		4		1
14		17		16		ar
15		20		19		ar
16		20		21		ar
17		27		50		1
18		27		26		1
19		19		24		ar
20		46		21		1
21		3		4		ar
22		3		33		ar
23		21		22		ar
24		4		5		ar
25		16		42		1
26		16		15		ar
27		49		26		1
28		24		15		ar
29		24		23		ar
30		26		25		1
31		26		28		1
32		58		33		1
33		30		29		2
34		33		32		ar
35		15		12		1
36		22		23		ar
37		22		47		1
38		5		38		1
39		5		6		ar
40		29		25		ar
41		29		31		ar
42		25		11		ar
43		23		48		1
44		53		28		1
45		56		31		1
46		28		55		1
47		28		54		1
48		31		9		ar
49		41		12		1
50		11		12		1
51		11		10		ar
52		32		6		ar
53		32		57		1
54		12		13		1
55		6		7		1
56		9		10		ar
57		9		8		1
58		8		7		1
59		7		39		1
60		7		40		1
61		13		14		3

