@<TRIPOS>MOLECULE
LJ-2007-EJMC-198-14
 50 53 0 0 0
SMALL
MULLIKEN_CHARGES
****
Gaussian 16 #p B3LYP/6-31G* opt
@<TRIPOS>ATOM
1		C		1.6994		2.8907		2.0647		C.3		1		UNL1		-0.5108
2		C		0.6459		2.6701		1.0134		C.ar		1		UNL1		0.0175
3		C		0.4393		1.5011		0.3547		C.ar		1		UNL1		0.2509
4		C		1.2408		0.2451		0.7124		C.2		1		UNL1		0.3079
5		O		0.7918		-0.4484		1.6124		O.2		1		UNL1		-0.4449
6		C		2.4966		-0.0294		-0.0378		C.ar		1		UNL1		0.0520
7		C		2.8942		0.8949		-0.9992		C.ar		1		UNL1		-0.1969
8		C		4.0632		0.7224		-1.7638		C.ar		1		UNL1		-0.1360
9		C		4.8453		-0.3913		-1.5649		C.ar		1		UNL1		-0.1730
10		C		4.4941		-1.3712		-0.5997		C.ar		1		UNL1		0.1333
11		C		5.3152		-2.5143		-0.4105		C.ar		1		UNL1		-0.1955
12		C		4.9879		-3.4720		0.5206		C.ar		1		UNL1		-0.1262
13		C		3.8196		-3.3159		1.2985		C.ar		1		UNL1		-0.1352
14		C		2.9981		-2.2181		1.1428		C.ar		1		UNL1		-0.1911
15		C		3.3038		-1.2075		0.1902		C.ar		1		UNL1		0.0685
16		N		-0.5435		1.3503		-0.6249		N.ar		1		UNL1		-0.5576
17		C		-0.8782		0.0547		-1.1974		C.3		1		UNL1		0.1038
18		O		-1.8990		-0.5185		-0.4229		O.3		1		UNL1		-0.4583
19		C		-2.6064		-1.5711		-1.0784		C.3		1		UNL1		-0.1022
20		C		-3.9549		-1.7398		-0.4228		C.ar		1		UNL1		0.1464
21		C		-4.8000		-0.6305		-0.2817		C.ar		1		UNL1		-0.1657
22		C		-6.0598		-0.7768		0.2950		C.ar		1		UNL1		-0.1333
23		C		-6.4920		-2.0327		0.7320		C.ar		1		UNL1		-0.1262
24		C		-5.6552		-3.1398		0.5941		C.ar		1		UNL1		-0.1289
25		C		-4.3892		-2.9907		0.0224		C.ar		1		UNL1		-0.1823
26		C		-1.4277		2.3912		-0.9520		C.ar		1		UNL1		0.8051
27		O		-2.3260		2.2688		-1.7678		O.2		1		UNL1		-0.5164
28		N		-1.1722		3.5723		-0.2857		N.ar		1		UNL1		-0.7052
29		C		-0.2020		3.8217		0.6970		C.ar		1		UNL1		0.6023
30		O		-0.1103		4.9268		1.2102		O.2		1		UNL1		-0.5004
31		H		1.2376		3.2647		2.9845		H		1		UNL1		0.1845
32		H		2.4150		3.6561		1.7422		H		1		UNL1		0.1719
33		H		2.2479		1.9769		2.3022		H		1		UNL1		0.1603
34		H		2.2938		1.7834		-1.1623		H		1		UNL1		0.1583
35		H		4.3392		1.4695		-2.5017		H		1		UNL1		0.1466
36		H		5.7517		-0.5382		-2.1474		H		1		UNL1		0.1459
37		H		6.2104		-2.6160		-1.0191		H		1		UNL1		0.1375
38		H		5.6219		-4.3433		0.6592		H		1		UNL1		0.1392
39		H		3.5614		-4.0722		2.0349		H		1		UNL1		0.1417
40		H		2.1101		-2.1126		1.7488		H		1		UNL1		0.1904
41		H		-1.2145		0.2271		-2.2251		H		1		UNL1		0.1708
42		H		0.0265		-0.5650		-1.2123		H		1		UNL1		0.1480
43		H		-2.7334		-1.3124		-2.1428		H		1		UNL1		0.1439
44		H		-2.0311		-2.5084		-1.0335		H		1		UNL1		0.1356
45		H		-4.4555		0.3434		-0.6190		H		1		UNL1		0.1574
46		H		-6.7079		0.0890		0.4030		H		1		UNL1		0.1315
47		H		-7.4757		-2.1451		1.1803		H		1		UNL1		0.1284
48		H		-5.9817		-4.1179		0.9376		H		1		UNL1		0.1281
49		H		-3.7338		-3.8535		-0.0746		H		1		UNL1		0.1232
50		H		-1.7918		4.3422		-0.5125		H		1		UNL1		0.3549
@<TRIPOS>BOND
1		35		8		1
2		41		17		1
3		36		9		1
4		43		19		1
5		27		26		2
6		8		9		ar
7		8		7		ar
8		9		10		ar
9		42		17		1
10		17		16		1
11		17		18		1
12		34		7		1
13		19		44		1
14		19		18		1
15		19		20		1
16		37		11		1
17		7		6		ar
18		26		16		ar
19		26		28		ar
20		16		3		ar
21		45		21		1
22		10		11		ar
23		10		15		ar
24		50		28		1
25		20		21		ar
26		20		25		ar
27		11		12		ar
28		28		29		ar
29		21		22		ar
30		49		25		1
31		6		15		ar
32		6		4		1
33		25		24		ar
34		15		14		ar
35		22		46		1
36		22		23		ar
37		3		4		1
38		3		2		ar
39		12		38		1
40		12		13		ar
41		24		23		ar
42		24		48		1
43		29		2		ar
44		29		30		2
45		4		5		2
46		23		47		1
47		2		1		1
48		14		13		ar
49		14		40		1
50		13		39		1
51		32		1		1
52		1		33		1
53		1		31		1

