@<TRIPOS>MOLECULE
LJ-2006-CPB-1249-18
 45 47 0 0 0
SMALL
MULLIKEN_CHARGES
****
Gaussian 16 #p B3LYP/6-31G* opt
@<TRIPOS>ATOM
1		C		0.0383		-3.7400		-1.2096		C.3		1		UNL1		-0.4518
2		C		0.5670		-2.3956		-1.7396		C.3		1		UNL1		-0.3298
3		C		1.4279		-1.6447		-0.7493		C.ar		1		UNL1		0.0234
4		C		1.0538		-0.5055		-0.1084		C.ar		1		UNL1		0.2393
5		C		-0.2749		0.1850		-0.4294		C.2		1		UNL1		0.3087
6		O		-0.2245		1.1033		-1.2382		O.2		1		UNL1		-0.4594
7		C		-1.5055		-0.2827		0.2554		C.ar		1		UNL1		0.0587
8		C		-1.3606		-1.2088		1.2849		C.ar		1		UNL1		-0.1974
9		C		-2.4610		-1.6833		2.0231		C.ar		1		UNL1		-0.1368
10		C		-3.7251		-1.2344		1.7183		C.ar		1		UNL1		-0.1710
11		C		-3.9397		-0.2959		0.6752		C.ar		1		UNL1		0.1331
12		C		-5.2540		0.1496		0.3741		C.ar		1		UNL1		-0.1948
13		C		-5.4769		1.0594		-0.6328		C.ar		1		UNL1		-0.1254
14		C		-4.3842		1.5569		-1.3761		C.ar		1		UNL1		-0.1341
15		C		-3.0931		1.1478		-1.1106		C.ar		1		UNL1		-0.1864
16		C		-2.8242		0.2082		-0.0787		C.ar		1		UNL1		0.0726
17		N		1.8792		0.1666		0.7901		N.ar		1		UNL1		-0.5302
18		C		1.5122		1.4635		1.3545		C.3		1		UNL1		-0.2813
19		C		1.7702		2.6693		0.4520		C.2		1		UNL1		0.6585
20		O		1.2698		3.7503		0.6628		O.2		1		UNL1		-0.4734
21		O		2.6325		2.3945		-0.5354		O.3		1		UNL1		-0.4381
22		C		2.9140		3.4876		-1.4278		C.3		1		UNL1		-0.2203
23		C		3.1734		-0.2839		1.0830		C.ar		1		UNL1		0.7937
24		O		3.9201		0.2921		1.8562		O.2		1		UNL1		-0.5127
25		N		3.5188		-1.4514		0.4321		N.ar		1		UNL1		-0.7048
26		C		2.7675		-2.1831		-0.4985		C.ar		1		UNL1		0.6063
27		O		3.2409		-3.1821		-1.0223		O.2		1		UNL1		-0.5077
28		H		-0.6172		-3.5970		-0.3434		H		1		UNL1		0.1394
29		H		-0.5382		-4.2537		-1.9870		H		1		UNL1		0.1472
30		H		0.8688		-4.3883		-0.9172		H		1		UNL1		0.1774
31		H		1.1786		-2.5882		-2.6290		H		1		UNL1		0.1722
32		H		-0.2690		-1.7674		-2.0642		H		1		UNL1		0.1482
33		H		-0.3715		-1.5791		1.5314		H		1		UNL1		0.1612
34		H		-2.3045		-2.4004		2.8230		H		1		UNL1		0.1482
35		H		-4.5857		-1.5950		2.2767		H		1		UNL1		0.1474
36		H		-6.0820		-0.2455		0.9576		H		1		UNL1		0.1386
37		H		-6.4854		1.3952		-0.8569		H		1		UNL1		0.1403
38		H		-4.5603		2.2766		-2.1709		H		1		UNL1		0.1426
39		H		-2.2685		1.5467		-1.6830		H		1		UNL1		0.1875
40		H		2.1088		1.5964		2.2596		H		1		UNL1		0.2346
41		H		0.4582		1.4741		1.6370		H		1		UNL1		0.1967
42		H		1.9990		3.7987		-1.9377		H		1		UNL1		0.1800
43		H		3.3274		4.3344		-0.8747		H		1		UNL1		0.1751
44		H		3.6402		3.0999		-2.1419		H		1		UNL1		0.1694
45		H		4.4540		-1.7938		0.6231		H		1		UNL1		0.3552
@<TRIPOS>BOND
1		31		2		1
2		38		14		1
3		44		22		1
4		32		2		1
5		29		1		1
6		42		22		1
7		2		1		1
8		2		3		1
9		39		15		1
10		22		43		1
11		22		21		1
12		14		15		ar
13		14		13		ar
14		6		5		2
15		1		30		1
16		1		28		1
17		15		16		ar
18		27		26		2
19		37		13		1
20		3		26		ar
21		3		4		ar
22		13		12		ar
23		21		19		1
24		26		25		ar
25		5		4		1
26		5		7		1
27		4		17		ar
28		16		7		ar
29		16		11		ar
30		7		8		ar
31		12		11		ar
32		12		36		1
33		25		45		1
34		25		23		ar
35		19		20		2
36		19		18		1
37		11		10		ar
38		17		23		ar
39		17		18		1
40		23		24		2
41		8		33		1
42		8		9		ar
43		18		41		1
44		18		40		1
45		10		9		ar
46		10		35		1
47		9		34		1

