@<TRIPOS>MOLECULE
LJ-2007-JMC-1778-3I
 44 46 0 0 0
SMALL
MULLIKEN_CHARGES
****
Gaussian 16 #p B3LYP/6-31G* opt
@<TRIPOS>ATOM
1		C		-3.8436		-1.4940		-0.6694		C.3		1		UNL1		-0.5367
2		C		-2.3621		-1.6967		-0.5152		C.ar		1		UNL1		0.0700
3		C		-1.5408		-0.9858		0.3208		C.ar		1		UNL1		0.2313
4		C		-2.0361		0.1628		1.2110		C.3		1		UNL1		-0.2877
5		C		-3.0811		-0.3060		2.1339		C.1		1		UNL1		0.3646
6		N		-3.8955		-0.6753		2.8740		N.1		1		UNL1		-0.4862
7		C		-2.4449		1.4285		0.4357		C.ar		1		UNL1		0.1423
8		C		-1.6690		1.8400		-0.6566		C.ar		1		UNL1		-0.1711
9		C		-1.9790		3.0147		-1.3412		C.ar		1		UNL1		-0.1381
10		C		-3.0667		3.7950		-0.9427		C.ar		1		UNL1		-0.1218
11		C		-3.8410		3.3900		0.1436		C.ar		1		UNL1		-0.1331
12		C		-3.5327		2.2133		0.8307		C.ar		1		UNL1		-0.1846
13		N		-0.1818		-1.2018		0.4490		N.ar		1		UNL1		-0.5409
14		C		0.3515		-2.1516		-0.2609		C.ar		1		UNL1		0.3441
15		S		2.0853		-2.5510		-0.2129		S.3		1		UNL1		0.1913
16		C		2.6711		-1.5696		1.2337		C.3		1		UNL1		-0.5328
17		C		3.8763		-0.7095		0.8344		C.2		1		UNL1		0.4003
18		O		4.9929		-1.1781		0.9939		O.2		1		UNL1		-0.4469
19		C		3.6744		0.6568		0.2695		C.ar		1		UNL1		0.0755
20		C		4.8206		1.3860		-0.0912		C.ar		1		UNL1		-0.1537
21		C		4.7043		2.6743		-0.6010		C.ar		1		UNL1		-0.1315
22		C		3.4403		3.2530		-0.7555		C.ar		1		UNL1		-0.1171
23		C		2.2958		2.5363		-0.4019		C.ar		1		UNL1		-0.1478
24		C		2.4090		1.2426		0.1073		C.ar		1		UNL1		-0.1916
25		N		-0.3770		-2.9174		-1.1161		N.ar		1		UNL1		-0.6530
26		C		-1.7707		-2.7664		-1.3167		C.ar		1		UNL1		0.5823
27		O		-2.3502		-3.5020		-2.1011		O.2		1		UNL1		-0.5055
28		H		-4.4006		-2.1047		0.0526		H		1		UNL1		0.1912
29		H		-4.1351		-0.4521		-0.5187		H		1		UNL1		0.1692
30		H		-4.1502		-1.8115		-1.6690		H		1		UNL1		0.1896
31		H		-1.1745		0.4221		1.8402		H		1		UNL1		0.2215
32		H		-0.8248		1.2380		-0.9802		H		1		UNL1		0.1474
33		H		-1.3732		3.3156		-2.1917		H		1		UNL1		0.1393
34		H		-3.3099		4.7082		-1.4784		H		1		UNL1		0.1386
35		H		-4.6924		3.9858		0.4605		H		1		UNL1		0.1430
36		H		-4.1456		1.9060		1.6730		H		1		UNL1		0.1616
37		H		1.8098		-1.0074		1.5987		H		1		UNL1		0.2325
38		H		3.0078		-2.2804		1.9896		H		1		UNL1		0.2187
39		H		5.7908		0.9191		0.0422		H		1		UNL1		0.1680
40		H		5.5956		3.2311		-0.8764		H		1		UNL1		0.1426
41		H		3.3492		4.2616		-1.1498		H		1		UNL1		0.1416
42		H		1.3124		2.9839		-0.5173		H		1		UNL1		0.1429
43		H		1.5091		0.6949		0.3687		H		1		UNL1		0.1687
44		H		0.0517		-3.6738		-1.6413		H		1		UNL1		0.3618
@<TRIPOS>BOND
1		33		9		1
2		27		26		2
3		30		1		1
4		44		25		1
5		34		10		1
6		9		10		ar
7		9		8		ar
8		26		25		ar
9		26		2		ar
10		41		22		1
11		25		14		ar
12		32		8		1
13		10		11		ar
14		40		21		1
15		22		21		ar
16		22		23		ar
17		1		29		1
18		1		2		1
19		1		28		1
20		8		7		ar
21		21		20		ar
22		42		23		1
23		2		3		ar
24		23		24		ar
25		14		15		1
26		14		13		ar
27		15		16		1
28		20		39		1
29		20		19		ar
30		24		19		ar
31		24		43		1
32		11		35		1
33		11		12		ar
34		19		17		1
35		3		13		ar
36		3		4		1
37		7		12		ar
38		7		4		1
39		12		36		1
40		17		18		2
41		17		16		1
42		4		31		1
43		4		5		1
44		16		37		1
45		16		38		1
46		5		6		3

