@<TRIPOS>MOLECULE
LJ-2007-EJMC-198-16
 49 51 0 0 0
SMALL
MULLIKEN_CHARGES
****
Gaussian 16 #p B3LYP/6-31G* opt
@<TRIPOS>ATOM
1		C		4.5618		0.6902		-0.2756		C.3		1		UNL1		-0.4481
2		C		3.2210		0.2878		-0.9185		C.3		1		UNL1		-0.3374
3		C		2.1015		1.2405		-0.5653		C.ar		1		UNL1		0.0274
4		C		1.1908		1.0686		0.4355		C.ar		1		UNL1		0.2409
5		C		1.3281		-0.0991		1.4073		C.2		1		UNL1		0.3129
6		O		1.5978		0.2053		2.5648		O.2		1		UNL1		-0.4475
7		C		1.2456		-1.5370		1.0035		C.ar		1		UNL1		-0.0070
8		C		1.9560		-2.3988		1.8331		C.ar		1		UNL1		-0.1579
9		C		2.0089		-3.7834		1.5956		C.ar		1		UNL1		-0.1369
10		C		1.3228		-4.3181		0.5285		C.ar		1		UNL1		-0.1750
11		C		0.5506		-3.4950		-0.3304		C.ar		1		UNL1		0.1297
12		C		-0.1928		-4.0665		-1.3983		C.ar		1		UNL1		-0.1922
13		C		-0.9807		-3.2866		-2.2116		C.ar		1		UNL1		-0.1311
14		C		-1.0501		-1.8931		-1.9879		C.ar		1		UNL1		-0.1424
15		C		-0.3234		-1.3076		-0.9736		C.ar		1		UNL1		-0.1858
16		C		0.5010		-2.0741		-0.1083		C.ar		1		UNL1		0.0972
17		N		0.2378		2.0470		0.7583		N.ar		1		UNL1		-0.5564
18		C		-0.7671		1.8844		1.8230		C.3		1		UNL1		-0.2144
19		C		-2.0781		1.2913		1.3815		C.2		1		UNL1		-0.0899
20		C		-2.4980		1.1614		0.1190		C.2		1		UNL1		-0.1739
21		C		-3.7714		0.5304		-0.2902		C.2		1		UNL1		0.6260
22		O		-4.0491		0.2794		-1.4482		O.2		1		UNL1		-0.4977
23		O		-4.5885		0.2472		0.7500		O.3		1		UNL1		-0.4637
24		C		-5.8251		-0.3926		0.3998		C.3		1		UNL1		-0.2186
25		C		0.1832		3.2731		0.0830		C.ar		1		UNL1		0.7851
26		O		-0.6204		4.1490		0.3574		O.2		1		UNL1		-0.5120
27		N		1.1101		3.4074		-0.9319		N.ar		1		UNL1		-0.7036
28		C		2.0878		2.4940		-1.3329		C.ar		1		UNL1		0.6111
29		O		2.8477		2.7648		-2.2520		O.2		1		UNL1		-0.5044
30		H		4.4977		0.6755		0.8184		H		1		UNL1		0.1484
31		H		5.3527		-0.0041		-0.5806		H		1		UNL1		0.1481
32		H		4.8543		1.6961		-0.5910		H		1		UNL1		0.1713
33		H		3.3329		0.3032		-2.0073		H		1		UNL1		0.1749
34		H		2.9685		-0.7346		-0.6324		H		1		UNL1		0.1551
35		H		2.4905		-1.9714		2.6744		H		1		UNL1		0.1701
36		H		2.5922		-4.4209		2.2534		H		1		UNL1		0.1448
37		H		1.3550		-5.3871		0.3322		H		1		UNL1		0.1442
38		H		-0.1353		-5.1416		-1.5500		H		1		UNL1		0.1373
39		H		-1.5548		-3.7358		-3.0169		H		1		UNL1		0.1418
40		H		-1.6968		-1.2748		-2.6037		H		1		UNL1		0.1633
41		H		-0.4036		-0.2412		-0.8296		H		1		UNL1		0.1420
42		H		-0.9541		2.8856		2.2245		H		1		UNL1		0.2192
43		H		-0.3309		1.2941		2.6280		H		1		UNL1		0.2089
44		H		-2.7271		0.9651		2.1917		H		1		UNL1		0.1721
45		H		-1.8933		1.4866		-0.7211		H		1		UNL1		0.1593
46		H		-6.3537		-0.5418		1.3418		H		1		UNL1		0.1644
47		H		-6.4089		0.2420		-0.2723		H		1		UNL1		0.1736
48		H		-5.6370		-1.3510		-0.0917		H		1		UNL1		0.1704
49		H		1.0812		4.2896		-1.4313		H		1		UNL1		0.3566
@<TRIPOS>BOND
1		39		13		1
2		40		14		1
3		29		28		2
4		13		14		ar
5		13		12		ar
6		33		2		1
7		14		15		ar
8		38		12		1
9		22		21		2
10		49		27		1
11		12		11		ar
12		28		27		ar
13		28		3		ar
14		15		41		1
15		15		16		ar
16		27		25		ar
17		2		34		1
18		2		3		1
19		2		1		1
20		45		20		1
21		32		1		1
22		31		1		1
23		3		4		ar
24		11		16		ar
25		11		10		ar
26		21		20		1
27		21		23		1
28		1		30		1
29		47		24		1
30		16		7		ar
31		48		24		1
32		25		26		2
33		25		17		ar
34		20		19		2
35		37		10		1
36		24		23		1
37		24		46		1
38		4		17		ar
39		4		5		1
40		10		9		ar
41		17		18		1
42		7		5		1
43		7		8		ar
44		19		18		1
45		19		44		1
46		5		6		2
47		9		8		ar
48		9		36		1
49		18		42		1
50		18		43		1
51		8		35		1

