@<TRIPOS>MOLECULE
LJ-2007-JMC-1778-3V
 52 54 0 0 0
SMALL
MULLIKEN_CHARGES
****
Gaussian 16 #p B3LYP/6-31G* opt
@<TRIPOS>ATOM
1		C		7.3320		1.7560		-0.9739		C.3		1		UNL1		-0.2203
2		O		6.6417		1.4692		0.2344		O.3		1		UNL1		-0.5014
3		C		5.6954		0.4923		0.2253		C.ar		1		UNL1		0.3815
4		C		5.3549		-0.2801		-0.8951		C.ar		1		UNL1		-0.1920
5		C		4.3637		-1.2547		-0.7896		C.ar		1		UNL1		-0.1709
6		C		3.6943		-1.4876		0.4170		C.ar		1		UNL1		0.1347
7		C		2.6515		-2.5744		0.5566		C.3		1		UNL1		-0.5465
8		S		1.2986		-2.6285		-0.7084		S.3		1		UNL1		0.1942
9		C		0.3009		-1.2004		-0.3552		C.ar		1		UNL1		0.3315
10		N		-0.8882		-1.1935		-0.8850		N.ar		1		UNL1		-0.5266
11		C		-1.6869		-0.0952		-0.6576		C.ar		1		UNL1		0.2136
12		C		-3.0402		-0.2405		-1.3816		C.3		1		UNL1		-0.3049
13		C		-3.2885		0.8798		-2.2999		C.1		1		UNL1		0.3749
14		N		-3.4805		1.7499		-3.0445		N.1		1		UNL1		-0.4983
15		C		-4.2186		-0.5324		-0.4390		C.ar		1		UNL1		0.1551
16		C		-5.4002		0.2135		-0.4563		C.ar		1		UNL1		-0.1856
17		C		-6.4530		-0.1143		0.4021		C.ar		1		UNL1		-0.1356
18		C		-6.3354		-1.1892		1.2818		C.ar		1		UNL1		-0.1228
19		C		-5.1580		-1.9414		1.2975		C.ar		1		UNL1		-0.1346
20		C		-4.1068		-1.6168		0.4422		C.ar		1		UNL1		-0.1686
21		C		-1.3424		0.9737		0.1385		C.ar		1		UNL1		0.0765
22		C		-2.2474		2.1573		0.4414		C.3		1		UNL1		-0.1477
23		C		-2.5422		2.2727		1.9515		C.3		1		UNL1		-0.4579
24		C		-1.6831		3.4740		-0.1299		C.3		1		UNL1		-0.4587
25		C		-0.0043		0.9705		0.7258		C.ar		1		UNL1		0.5780
26		O		0.5066		1.8325		1.4320		O.2		1		UNL1		-0.5199
27		N		0.7642		-0.1770		0.4036		N.ar		1		UNL1		-0.6492
28		C		4.0476		-0.7048		1.5293		C.ar		1		UNL1		-0.2018
29		C		5.0320		0.2729		1.4402		C.ar		1		UNL1		-0.1583
30		H		8.0231		2.5662		-0.7361		H		1		UNL1		0.1772
31		H		7.9006		0.8867		-1.3289		H		1		UNL1		0.1551
32		H		6.6429		2.0860		-1.7619		H		1		UNL1		0.1591
33		H		5.8488		-0.1279		-1.8477		H		1		UNL1		0.1428
34		H		4.1015		-1.8364		-1.6695		H		1		UNL1		0.1499
35		H		3.0979		-3.5683		0.4339		H		1		UNL1		0.2081
36		H		2.1966		-2.5561		1.5518		H		1		UNL1		0.1948
37		H		-2.9037		-1.1229		-2.0190		H		1		UNL1		0.2263
38		H		-5.5041		1.0493		-1.1422		H		1		UNL1		0.1574
39		H		-7.3652		0.4757		0.3785		H		1		UNL1		0.1378
40		H		-7.1547		-1.4428		1.9488		H		1		UNL1		0.1335
41		H		-5.0581		-2.7850		1.9752		H		1		UNL1		0.1347
42		H		-3.1952		-2.2084		0.4520		H		1		UNL1		0.1496
43		H		-3.2053		1.9766		-0.0532		H		1		UNL1		0.1380
44		H		-3.2482		3.0926		2.1278		H		1		UNL1		0.1400
45		H		-1.6282		2.4763		2.5144		H		1		UNL1		0.1783
46		H		-2.9940		1.3511		2.3356		H		1		UNL1		0.1433
47		H		-1.5592		3.4089		-1.2160		H		1		UNL1		0.1565
48		H		-2.3781		4.2955		0.0794		H		1		UNL1		0.1399
49		H		-0.7180		3.7137		0.3236		H		1		UNL1		0.1754
50		H		1.7267		-0.1460		0.7304		H		1		UNL1		0.3678
51		H		3.5503		-0.8666		2.4836		H		1		UNL1		0.1425
52		H		5.2994		0.8815		2.2977		H		1		UNL1		0.1534
@<TRIPOS>BOND
1		14		13		3
2		13		12		1
3		37		12		1
4		33		4		1
5		32		1		1
6		34		5		1
7		12		11		1
8		12		15		1
9		31		1		1
10		47		24		1
11		38		16		1
12		1		30		1
13		1		2		1
14		4		5		ar
15		4		3		ar
16		10		11		ar
17		10		9		ar
18		5		6		ar
19		8		9		1
20		8		7		1
21		11		21		ar
22		16		15		ar
23		16		17		ar
24		15		20		ar
25		9		27		ar
26		24		48		1
27		24		49		1
28		24		22		1
29		43		22		1
30		21		22		1
31		21		25		ar
32		3		2		1
33		3		29		ar
34		39		17		1
35		17		18		ar
36		27		25		ar
37		27		50		1
38		6		7		1
39		6		28		ar
40		35		7		1
41		22		23		1
42		20		42		1
43		20		19		ar
44		7		36		1
45		25		26		2
46		18		19		ar
47		18		40		1
48		19		41		1
49		29		28		ar
50		29		52		1
51		28		51		1
52		23		44		1
53		23		46		1
54		23		45		1

