@<TRIPOS>MOLECULE
LJ-2007-EJMC-198-12
 43 45 0 0 0
SMALL
MULLIKEN_CHARGES
****
Gaussian 16 #p B3LYP/6-31G* opt
@<TRIPOS>ATOM
1		C		-0.1883		-4.7097		0.1262		C.3		1		UNL1		-0.4576
2		C		-0.3795		-3.4952		1.0181		C.3		1		UNL1		-0.0185
3		O		0.5203		-2.4796		0.5811		O.3		1		UNL1		-0.4698
4		C		0.4365		-1.3077		1.3590		C.3		1		UNL1		0.0784
5		N		1.3512		-0.3255		0.7870		N.ar		1		UNL1		-0.5643
6		C		1.2645		0.0547		-0.5595		C.ar		1		UNL1		0.2547
7		C		0.0644		-0.4239		-1.3657		C.2		1		UNL1		0.3443
8		O		0.2898		-1.0314		-2.4002		O.2		1		UNL1		-0.4395
9		C		-1.3510		-0.1617		-0.9354		C.ar		1		UNL1		-0.0123
10		C		-2.2604		-1.1300		-1.3392		C.ar		1		UNL1		-0.1585
11		C		-3.6220		-1.0607		-0.9876		C.ar		1		UNL1		-0.1400
12		C		-4.0794		-0.0018		-0.2370		C.ar		1		UNL1		-0.1773
13		C		-3.2027		1.0373		0.1699		C.ar		1		UNL1		0.1310
14		C		-3.6926		2.1458		0.9118		C.ar		1		UNL1		-0.1925
15		C		-2.8597		3.1740		1.2844		C.ar		1		UNL1		-0.1288
16		C		-1.4962		3.1366		0.9142		C.ar		1		UNL1		-0.1386
17		C		-0.9865		2.0745		0.1993		C.ar		1		UNL1		-0.1906
18		C		-1.8090		0.9783		-0.1845		C.ar		1		UNL1		0.0898
19		C		2.2204		0.8118		-1.1687		C.ar		1		UNL1		0.0077
20		C		2.2085		1.2647		-2.6047		C.3		1		UNL1		-0.4998
21		C		3.3786		1.2570		-0.3829		C.ar		1		UNL1		0.6040
22		O		4.2948		1.9449		-0.8078		O.2		1		UNL1		-0.4992
23		N		3.3690		0.8376		0.9518		N.ar		1		UNL1		-0.6976
24		C		2.4476		0.0314		1.5885		C.ar		1		UNL1		0.7859
25		O		2.5795		-0.3190		2.7493		O.2		1		UNL1		-0.5110
26		H		-0.3895		-4.4543		-0.9190		H		1		UNL1		0.1667
27		H		-0.8693		-5.5130		0.4279		H		1		UNL1		0.1470
28		H		0.8393		-5.0792		0.1964		H		1		UNL1		0.1673
29		H		-0.1738		-3.7465		2.0710		H		1		UNL1		0.1332
30		H		-1.4162		-3.1253		0.9624		H		1		UNL1		0.1307
31		H		0.7655		-1.4715		2.3883		H		1		UNL1		0.1955
32		H		-0.5866		-0.9135		1.3620		H		1		UNL1		0.1575
33		H		-1.8904		-1.9619		-1.9289		H		1		UNL1		0.1700
34		H		-4.3015		-1.8458		-1.3063		H		1		UNL1		0.1436
35		H		-5.1265		0.0606		0.0492		H		1		UNL1		0.1426
36		H		-4.7480		2.1677		1.1723		H		1		UNL1		0.1382
37		H		-3.2457		4.0176		1.8495		H		1		UNL1		0.1404
38		H		-0.8414		3.9587		1.1892		H		1		UNL1		0.1431
39		H		0.0561		2.0914		-0.0908		H		1		UNL1		0.1474
40		H		1.2269		1.1752		-3.0693		H		1		UNL1		0.1639
41		H		2.9110		0.6668		-3.1973		H		1		UNL1		0.1823
42		H		2.5507		2.3021		-2.6611		H		1		UNL1		0.1744
43		H		4.1644		1.1136		1.5168		H		1		UNL1		0.3561
@<TRIPOS>BOND
1		41		20		1
2		40		20		1
3		42		20		1
4		20		19		1
5		8		7		2
6		33		10		1
7		7		9		1
8		7		6		1
9		10		11		ar
10		10		9		ar
11		34		11		1
12		19		6		ar
13		19		21		ar
14		11		12		ar
15		9		18		ar
16		26		1		1
17		22		21		2
18		6		5		ar
19		21		23		ar
20		12		35		1
21		12		13		ar
22		18		13		ar
23		18		17		ar
24		39		17		1
25		1		28		1
26		1		27		1
27		1		2		1
28		13		14		ar
29		17		16		ar
30		3		2		1
31		3		4		1
32		5		4		1
33		5		24		ar
34		14		36		1
35		14		15		ar
36		16		38		1
37		16		15		ar
38		23		43		1
39		23		24		ar
40		30		2		1
41		2		29		1
42		15		37		1
43		4		32		1
44		4		31		1
45		24		25		2

