@<TRIPOS>MOLECULE
LJ-2007-EJMC-198-26
 56 59 0 0 0
SMALL
MULLIKEN_CHARGES
****
Gaussian 16 #p B3LYP/6-31G* opt
@<TRIPOS>ATOM
1		C		-3.9881		-2.7366		-1.1562		C.3		1		UNL1		-0.4544
2		C		-3.3109		-1.6343		-0.3152		C.3		1		UNL1		-0.1502
3		C		-4.0598		-1.3954		1.0107		C.3		1		UNL1		-0.4607
4		C		-1.8325		-1.9351		-0.1026		C.ar		1		UNL1		0.0510
5		C		-0.8252		-1.1840		-0.6314		C.ar		1		UNL1		0.2106
6		C		-1.1234		-0.0096		-1.5613		C.2		1		UNL1		0.3232
7		O		-0.9070		-0.2083		-2.7501		O.2		1		UNL1		-0.4517
8		C		-1.7293		1.2763		-1.0931		C.ar		1		UNL1		0.0191
9		C		-2.3663		1.9966		-2.0976		C.ar		1		UNL1		-0.1598
10		C		-3.0356		3.2053		-1.8383		C.ar		1		UNL1		-0.1351
11		C		-3.0630		3.7053		-0.5567		C.ar		1		UNL1		-0.1754
12		C		-2.4073		3.0300		0.5045		C.ar		1		UNL1		0.1288
13		C		-2.4207		3.5779		1.8159		C.ar		1		UNL1		-0.1923
14		C		-1.7672		2.9553		2.8521		C.ar		1		UNL1		-0.1292
15		C		-1.0606		1.7566		2.6063		C.ar		1		UNL1		-0.1443
16		C		-1.0303		1.1969		1.3468		C.ar		1		UNL1		-0.1819
17		C		-1.7134		1.7946		0.2515		C.ar		1		UNL1		0.0942
18		N		0.5297		-1.5060		-0.4884		N.ar		1		UNL1		-0.5479
19		C		1.5819		-0.7142		-1.1673		C.3		1		UNL1		0.0439
20		O		1.6662		0.5905		-0.6620		O.3		1		UNL1		-0.4636
21		C		2.4588		0.7213		0.5376		C.3		1		UNL1		-0.1393
22		C		3.9438		0.6512		0.2656		C.ar		1		UNL1		0.1335
23		C		4.6942		-0.4699		0.6402		C.ar		1		UNL1		-0.1855
24		C		6.0651		-0.5246		0.3747		C.ar		1		UNL1		-0.1323
25		C		6.6958		0.5393		-0.2698		C.ar		1		UNL1		-0.1262
26		C		5.9523		1.6597		-0.6534		C.ar		1		UNL1		-0.1313
27		C		4.5859		1.7135		-0.3871		C.ar		1		UNL1		-0.1630
28		C		0.9462		-2.5840		0.2978		C.ar		1		UNL1		0.7801
29		O		2.1186		-2.8595		0.5102		O.2		1		UNL1		-0.5226
30		N		-0.0911		-3.3236		0.8261		N.ar		1		UNL1		-0.6978
31		C		-1.4713		-3.1267		0.6766		C.ar		1		UNL1		0.6031
32		O		-2.2476		-3.9172		1.1968		O.2		1		UNL1		-0.5055
33		H		-3.4871		-2.8577		-2.1233		H		1		UNL1		0.1460
34		H		-5.0338		-2.4688		-1.3477		H		1		UNL1		0.1407
35		H		-3.9684		-3.6948		-0.6310		H		1		UNL1		0.1803
36		H		-3.3778		-0.7072		-0.8937		H		1		UNL1		0.1359
37		H		-3.6014		-0.5813		1.5826		H		1		UNL1		0.1458
38		H		-5.1001		-1.1181		0.8037		H		1		UNL1		0.1390
39		H		-4.0591		-2.2976		1.6268		H		1		UNL1		0.1818
40		H		-2.3473		1.5900		-3.1028		H		1		UNL1		0.1720
41		H		-3.5330		3.7307		-2.6482		H		1		UNL1		0.1443
42		H		-3.5847		4.6338		-0.3371		H		1		UNL1		0.1430
43		H		-2.9573		4.5091		1.9806		H		1		UNL1		0.1377
44		H		-1.7831		3.3826		3.8506		H		1		UNL1		0.1393
45		H		-0.5290		1.2699		3.4194		H		1		UNL1		0.1393
46		H		-0.4628		0.2905		1.1971		H		1		UNL1		0.1550
47		H		2.5074		-1.2770		-1.0462		H		1		UNL1		0.2023
48		H		1.3179		-0.6298		-2.2188		H		1		UNL1		0.2022
49		H		2.1654		-0.0420		1.2693		H		1		UNL1		0.1477
50		H		2.1778		1.6999		0.9364		H		1		UNL1		0.1612
51		H		4.1989		-1.3069		1.1253		H		1		UNL1		0.1637
52		H		6.6368		-1.4004		0.6698		H		1		UNL1		0.1343
53		H		7.7624		0.4982		-0.4746		H		1		UNL1		0.1312
54		H		6.4399		2.4907		-1.1563		H		1		UNL1		0.1312
55		H		4.0065		2.5835		-0.6875		H		1		UNL1		0.1340
56		H		0.1855		-4.1268		1.3800		H		1		UNL1		0.3546
@<TRIPOS>BOND
1		40		9		1
2		7		6		2
3		41		10		1
4		48		19		1
5		33		1		1
6		9		10		ar
7		9		8		ar
8		10		11		ar
9		6		8		1
10		6		5		1
11		34		1		1
12		19		47		1
13		19		20		1
14		19		18		1
15		54		26		1
16		1		35		1
17		1		2		1
18		8		17		ar
19		36		2		1
20		55		27		1
21		20		21		1
22		26		27		ar
23		26		25		ar
24		5		18		ar
25		5		4		ar
26		11		42		1
27		11		12		ar
28		18		28		ar
29		53		25		1
30		27		22		ar
31		2		4		1
32		2		3		1
33		25		24		ar
34		4		31		ar
35		17		12		ar
36		17		16		ar
37		22		21		1
38		22		23		ar
39		28		29		2
40		28		30		ar
41		24		23		ar
42		24		52		1
43		12		13		ar
44		21		50		1
45		21		49		1
46		23		51		1
47		31		30		ar
48		31		32		2
49		38		3		1
50		30		56		1
51		3		37		1
52		3		39		1
53		46		16		1
54		16		15		ar
55		13		43		1
56		13		14		ar
57		15		14		ar
58		15		45		1
59		14		44		1

