@<TRIPOS>MOLECULE
LJ-2007-JMC-1778-4B
 43 46 0 0 0
SMALL
MULLIKEN_CHARGES
****
Gaussian 16 #p B3LYP/6-31G* opt
@<TRIPOS>ATOM
1		O		-1.6225		-1.9392		0.1490		O.2		1		UNL1		-0.4389
2		C		-1.6092		-0.7319		-0.0331		C.2		1		UNL1		0.3610
3		C		-0.2723		-0.0180		0.1247		C.ar		1		UNL1		0.1936
4		C		-0.1659		1.1369		0.8548		C.ar		1		UNL1		-0.2374
5		C		1.1356		1.7026		1.1351		C.ar		1		UNL1		0.6111
6		O		1.4063		2.7068		1.7770		O.2		1		UNL1		-0.5197
7		N		2.1831		0.9361		0.5523		N.ar		1		UNL1		-0.6472
8		C		1.9797		-0.1956		-0.1803		C.ar		1		UNL1		0.3318
9		S		3.3300		-1.0747		-0.9233		S.3		1		UNL1		0.2218
10		C		4.8437		-0.1560		-0.4189		C.3		1		UNL1		-0.3066
11		C		5.3288		-0.3654		1.0273		C.3		1		UNL1		-0.2742
12		C		6.7985		0.1038		0.9798		C.3		1		UNL1		-0.2766
13		C		7.2853		-0.1883		-0.4719		C.3		1		UNL1		-0.2786
14		C		6.0360		-0.6592		-1.2599		C.3		1		UNL1		-0.2834
15		N		0.7972		-0.6966		-0.4015		N.ar		1		UNL1		-0.4924
16		C		-2.8251		0.0672		-0.3721		C.ar		1		UNL1		0.0307
17		C		-2.6652		1.2227		-1.1255		C.ar		1		UNL1		-0.1896
18		C		-3.7685		1.9889		-1.5544		C.ar		1		UNL1		-0.1358
19		C		-5.0413		1.6057		-1.2041		C.ar		1		UNL1		-0.1763
20		C		-5.2659		0.4406		-0.4238		C.ar		1		UNL1		0.1312
21		C		-6.5843		0.0612		-0.0559		C.ar		1		UNL1		-0.1961
22		C		-6.8096		-1.0650		0.7006		C.ar		1		UNL1		-0.1274
23		C		-5.7161		-1.8567		1.1186		C.ar		1		UNL1		-0.1373
24		C		-4.4233		-1.5213		0.7763		C.ar		1		UNL1		-0.1825
25		C		-4.1518		-0.3636		-0.0040		C.ar		1		UNL1		0.0765
26		H		-1.0311		1.6480		1.2579		H		1		UNL1		0.1684
27		H		3.1136		1.2931		0.7324		H		1		UNL1		0.3535
28		H		4.6917		0.9106		-0.6312		H		1		UNL1		0.1682
29		H		4.7360		0.1654		1.7801		H		1		UNL1		0.1495
30		H		5.2678		-1.4341		1.2647		H		1		UNL1		0.1656
31		H		6.8579		1.1774		1.1914		H		1		UNL1		0.1475
32		H		7.4068		-0.4008		1.7366		H		1		UNL1		0.1535
33		H		7.7105		0.7135		-0.9242		H		1		UNL1		0.1498
34		H		8.0693		-0.9512		-0.4944		H		1		UNL1		0.1526
35		H		6.0070		-1.7551		-1.3064		H		1		UNL1		0.1636
36		H		6.0048		-0.2884		-2.2883		H		1		UNL1		0.1621
37		H		-1.6675		1.5374		-1.4119		H		1		UNL1		0.1502
38		H		-3.6039		2.8779		-2.1560		H		1		UNL1		0.1396
39		H		-5.9005		2.1919		-1.5218		H		1		UNL1		0.1389
40		H		-7.4137		0.6835		-0.3834		H		1		UNL1		0.1325
41		H		-7.8216		-1.3468		0.9778		H		1		UNL1		0.1337
42		H		-5.8958		-2.7462		1.7165		H		1		UNL1		0.1361
43		H		-3.5997		-2.1488		1.0871		H		1		UNL1		0.1770
@<TRIPOS>BOND
1		36		14		1
2		38		18		1
3		18		19		ar
4		18		17		ar
5		39		19		1
6		37		17		1
7		35		14		1
8		14		13		1
9		14		10		1
10		19		20		ar
11		17		16		ar
12		33		13		1
13		9		10		1
14		9		8		1
15		28		10		1
16		34		13		1
17		13		12		1
18		20		21		ar
19		20		25		ar
20		10		11		1
21		15		8		ar
22		15		3		ar
23		40		21		1
24		16		2		1
25		16		25		ar
26		8		7		ar
27		21		22		ar
28		2		3		1
29		2		1		2
30		25		24		ar
31		3		4		ar
32		7		27		1
33		7		5		ar
34		22		41		1
35		22		23		ar
36		24		43		1
37		24		23		ar
38		4		5		ar
39		4		26		1
40		12		11		1
41		12		31		1
42		12		32		1
43		11		30		1
44		11		29		1
45		23		42		1
46		5		6		2

