@<TRIPOS>MOLECULE
LJ-2007-JMC-1778-3L
 51 54 0 0 0
SMALL
MULLIKEN_CHARGES
****
Gaussian 16 #p B3LYP/6-31G* opt
@<TRIPOS>ATOM
1		C		-4.8309		-0.5007		-0.4754		C.3		1		UNL1		-0.4553
2		C		-4.1285		0.3034		0.6347		C.3		1		UNL1		-0.3386
3		C		-2.8034		0.8902		0.2086		C.ar		1		UNL1		0.0562
4		C		-1.5585		0.3977		0.5144		C.ar		1		UNL1		0.2332
5		C		-1.3810		-0.8894		1.3516		C.3		1		UNL1		-0.3309
6		C		-1.5079		-0.5341		2.7753		C.1		1		UNL1		0.3793
7		N		-1.6268		-0.2375		3.8915		N.1		1		UNL1		-0.4872
8		C		-0.0885		-1.6573		1.0596		C.ar		1		UNL1		0.1317
9		C		0.9361		-1.6996		1.9812		C.ar		1		UNL1		-0.2000
10		C		2.1250		-2.4249		1.7292		C.ar		1		UNL1		-0.1438
11		C		2.2796		-3.1106		0.5493		C.ar		1		UNL1		-0.1858
12		C		1.2508		-3.0999		-0.4302		C.ar		1		UNL1		0.1306
13		C		1.3923		-3.8119		-1.6511		C.ar		1		UNL1		-0.1946
14		C		0.3953		-3.8038		-2.5992		C.ar		1		UNL1		-0.1309
15		C		-0.7920		-3.0738		-2.3629		C.ar		1		UNL1		-0.1407
16		C		-0.9611		-2.3724		-1.1888		C.ar		1		UNL1		-0.1989
17		C		0.0441		-2.3619		-0.1824		C.ar		1		UNL1		0.0958
18		N		-0.3748		0.9895		0.1518		N.ar		1		UNL1		-0.5084
19		C		-0.4328		2.0768		-0.5593		C.ar		1		UNL1		0.3324
20		S		1.0189		2.9306		-1.1121		S.3		1		UNL1		0.1518
21		C		2.3586		1.8559		-0.4461		C.3		1		UNL1		-0.2622
22		C		2.7038		2.0596		1.0342		C.3		1		UNL1		-0.2607
23		C		4.0663		1.3505		1.1438		C.3		1		UNL1		-0.2830
24		C		4.7847		1.6367		-0.2065		C.3		1		UNL1		-0.2764
25		C		3.6829		2.1348		-1.1868		C.3		1		UNL1		-0.2839
26		N		-1.6166		2.6325		-0.9452		N.ar		1		UNL1		-0.6528
27		C		-2.8793		2.1023		-0.6024		C.ar		1		UNL1		0.5883
28		O		-3.8986		2.6614		-0.9874		O.2		1		UNL1		-0.5211
29		H		-4.9893		0.1271		-1.3569		H		1		UNL1		0.1771
30		H		-4.2441		-1.3771		-0.7762		H		1		UNL1		0.1424
31		H		-5.8079		-0.8556		-0.1294		H		1		UNL1		0.1525
32		H		-4.0087		-0.3128		1.5312		H		1		UNL1		0.1501
33		H		-4.7788		1.1388		0.9166		H		1		UNL1		0.1790
34		H		-2.2267		-1.5515		1.1320		H		1		UNL1		0.2047
35		H		0.8310		-1.1762		2.9263		H		1		UNL1		0.1586
36		H		2.9069		-2.4408		2.4832		H		1		UNL1		0.1386
37		H		3.1863		-3.6768		0.3502		H		1		UNL1		0.1334
38		H		2.3109		-4.3682		-1.8223		H		1		UNL1		0.1338
39		H		0.5169		-4.3539		-3.5282		H		1		UNL1		0.1351
40		H		-1.5766		-3.0631		-3.1144		H		1		UNL1		0.1354
41		H		-1.8747		-1.8059		-1.0451		H		1		UNL1		0.1445
42		H		2.0260		0.8275		-0.6093		H		1		UNL1		0.2058
43		H		2.8056		3.1314		1.2473		H		1		UNL1		0.1455
44		H		1.9394		1.6490		1.6980		H		1		UNL1		0.1690
45		H		3.9063		0.2727		1.2646		H		1		UNL1		0.1488
46		H		4.6450		1.6899		2.0089		H		1		UNL1		0.1441
47		H		5.5621		2.3984		-0.0890		H		1		UNL1		0.1458
48		H		5.2794		0.7380		-0.5881		H		1		UNL1		0.1456
49		H		3.7171		1.6424		-2.1631		H		1		UNL1		0.1560
50		H		3.7953		3.2116		-1.3644		H		1		UNL1		0.1533
51		H		-1.6424		3.4759		-1.5102		H		1		UNL1		0.3567
@<TRIPOS>BOND
1		39		14		1
2		40		15		1
3		14		15		ar
4		14		13		ar
5		15		16		ar
6		49		25		1
7		38		13		1
8		13		12		ar
9		51		26		1
10		50		25		1
11		29		1		1
12		16		41		1
13		16		17		ar
14		25		21		1
15		25		24		1
16		20		19		1
17		20		21		1
18		28		27		2
19		26		27		ar
20		26		19		ar
21		30		1		1
22		42		21		1
23		27		3		ar
24		48		24		1
25		19		18		ar
26		1		31		1
27		1		2		1
28		21		22		1
29		12		17		ar
30		12		11		ar
31		24		47		1
32		24		23		1
33		17		8		ar
34		18		4		ar
35		3		4		ar
36		3		2		1
37		37		11		1
38		4		5		1
39		11		10		ar
40		2		33		1
41		2		32		1
42		22		23		1
43		22		43		1
44		22		44		1
45		8		5		1
46		8		9		ar
47		34		5		1
48		23		45		1
49		23		46		1
50		5		6		1
51		10		9		ar
52		10		36		1
53		9		35		1
54		6		7		3

