@<TRIPOS>MOLECULE
LJ-2007-JMC-1778-3C
 48 51 0 0 0
SMALL
MULLIKEN_CHARGES
****
Gaussian 16 #p B3LYP/6-31G* opt
@<TRIPOS>ATOM
1		C		-0.2403		4.0199		0.0864		C.3		1		UNL1		-0.5558
2		C		-0.6161		2.5615		0.0480		C.ar		1		UNL1		0.0703
3		C		0.2774		1.5172		-0.0210		C.ar		1		UNL1		0.2452
4		C		1.7935		1.8002		-0.0339		C.3		1		UNL1		-0.3558
5		C		2.2145		2.2159		-1.3864		C.1		1		UNL1		0.3781
6		N		2.5237		2.5915		-2.4410		N.1		1		UNL1		-0.4787
7		C		2.6759		0.7141		0.5902		C.ar		1		UNL1		0.1368
8		C		3.1215		0.9540		1.8761		C.ar		1		UNL1		-0.1987
9		C		3.9495		0.0380		2.5622		C.ar		1		UNL1		-0.1321
10		C		4.3462		-1.1196		1.9394		C.ar		1		UNL1		-0.1840
11		C		3.9215		-1.4122		0.6166		C.ar		1		UNL1		0.1338
12		C		4.3343		-2.6089		-0.0294		C.ar		1		UNL1		-0.1960
13		C		3.9222		-2.9032		-1.3073		C.ar		1		UNL1		-0.1289
14		C		3.0678		-2.0082		-1.9920		C.ar		1		UNL1		-0.1446
15		C		2.6468		-0.8413		-1.3949		C.ar		1		UNL1		-0.1651
16		C		3.0616		-0.4944		-0.0790		C.ar		1		UNL1		0.1062
17		N		-0.0697		0.1963		-0.0748		N.ar		1		UNL1		-0.5044
18		C		-1.3378		-0.1014		-0.0625		C.ar		1		UNL1		0.3222
19		S		-1.7106		-1.8333		-0.1723		S.3		1		UNL1		0.2091
20		C		-3.5418		-2.0112		-0.0191		C.3		1		UNL1		-0.3068
21		C		-4.4367		-1.3410		-1.1147		C.3		1		UNL1		-0.2913
22		C		-5.6087		-0.6839		-0.3421		C.3		1		UNL1		-0.2989
23		C		-5.6489		-1.4193		1.0115		C.3		1		UNL1		-0.2715
24		C		-4.1639		-1.6350		1.3480		C.3		1		UNL1		-0.2769
25		N		-2.3029		0.8536		0.0124		N.ar		1		UNL1		-0.6540
26		C		-2.0362		2.2443		0.0765		C.ar		1		UNL1		0.5734
27		O		-2.9774		3.0255		0.1461		O.2		1		UNL1		-0.5260
28		H		-1.1498		4.6231		0.0567		H		1		UNL1		0.2001
29		H		0.3918		4.3015		-0.7634		H		1		UNL1		0.1830
30		H		0.3029		4.2796		1.0052		H		1		UNL1		0.1606
31		H		1.9399		2.6959		0.5809		H		1		UNL1		0.2029
32		H		2.8322		1.8744		2.3784		H		1		UNL1		0.1276
33		H		4.2755		0.2635		3.5735		H		1		UNL1		0.1326
34		H		4.9934		-1.8295		2.4489		H		1		UNL1		0.1321
35		H		4.9860		-3.2905		0.5123		H		1		UNL1		0.1291
36		H		4.2464		-3.8205		-1.7912		H		1		UNL1		0.1302
37		H		2.7359		-2.2446		-2.9991		H		1		UNL1		0.1334
38		H		1.9802		-0.1850		-1.9388		H		1		UNL1		0.1484
39		H		-3.6145		-3.0983		-0.1349		H		1		UNL1		0.1892
40		H		-3.8875		-0.6264		-1.7344		H		1		UNL1		0.1668
41		H		-4.8048		-2.1130		-1.7978		H		1		UNL1		0.1626
42		H		-5.4160		0.3856		-0.1745		H		1		UNL1		0.1607
43		H		-6.5534		-0.7433		-0.8912		H		1		UNL1		0.1558
44		H		-6.1833		-0.8607		1.7867		H		1		UNL1		0.1548
45		H		-6.1523		-2.3886		0.8990		H		1		UNL1		0.1450
46		H		-3.7300		-0.7086		1.7429		H		1		UNL1		0.1542
47		H		-3.9872		-2.4113		2.0983		H		1		UNL1		0.1608
48		H		-3.2881		0.6222		0.0174		H		1		UNL1		0.3645
@<TRIPOS>BOND
1		37		14		1
2		6		5		3
3		14		15		ar
4		14		13		ar
5		38		15		1
6		41		21		1
7		36		13		1
8		40		21		1
9		15		16		ar
10		5		4		1
11		13		12		ar
12		21		22		1
13		21		20		1
14		43		22		1
15		29		1		1
16		22		42		1
17		22		23		1
18		19		18		1
19		19		20		1
20		39		20		1
21		16		7		ar
22		16		11		ar
23		17		18		ar
24		17		3		ar
25		18		25		ar
26		4		3		1
27		4		31		1
28		4		7		1
29		12		35		1
30		12		11		ar
31		3		2		ar
32		20		24		1
33		25		48		1
34		25		26		ar
35		2		26		ar
36		2		1		1
37		28		1		1
38		26		27		2
39		1		30		1
40		7		8		ar
41		11		10		ar
42		45		23		1
43		23		24		1
44		23		44		1
45		24		46		1
46		24		47		1
47		8		32		1
48		8		9		ar
49		10		34		1
50		10		9		ar
51		9		33		1

