@<TRIPOS>MOLECULE
LJ-2007-JMC-1778-3O
 53 56 0 0 0
SMALL
MULLIKEN_CHARGES
****
Gaussian 16 #p B3LYP/6-31G* opt
@<TRIPOS>ATOM
1		C		2.0619		3.0575		-1.2806		C.3		1		UNL1		-0.4505
2		C		1.5030		2.6527		0.0976		C.3		1		UNL1		-0.3344
3		C		0.7241		1.3606		0.0541		C.ar		1		UNL1		0.0616
4		C		1.1684		0.1182		0.4426		C.ar		1		UNL1		0.2095
5		C		2.5565		-0.0939		1.0494		C.3		1		UNL1		-0.3307
6		C		2.5310		-1.1572		2.0718		C.1		1		UNL1		0.3888
7		N		2.5652		-1.9674		2.9020		N.1		1		UNL1		-0.4708
8		C		3.6644		-0.3656		0.0139		C.ar		1		UNL1		0.1035
9		C		3.3606		-0.9671		-1.1901		C.ar		1		UNL1		-0.1795
10		C		4.3579		-1.2055		-2.1641		C.ar		1		UNL1		-0.1364
11		C		5.6590		-0.8370		-1.9244		C.ar		1		UNL1		-0.1828
12		C		6.0240		-0.2329		-0.6922		C.ar		1		UNL1		0.1363
13		C		7.3692		0.1393		-0.4286		C.ar		1		UNL1		-0.1930
14		C		7.7279		0.7051		0.7727		C.ar		1		UNL1		-0.1302
15		C		6.7478		0.9163		1.7693		C.ar		1		UNL1		-0.1333
16		C		5.4326		0.5730		1.5442		C.ar		1		UNL1		-0.1960
17		C		5.0199		-0.0006		0.3088		C.ar		1		UNL1		0.0921
18		N		0.4357		-1.0386		0.3078		N.ar		1		UNL1		-0.4939
19		C		-0.7742		-0.9461		-0.1543		C.ar		1		UNL1		0.3216
20		S		-1.6702		-2.4796		-0.2691		S.3		1		UNL1		0.2238
21		C		-3.1029		-2.0886		-1.3659		C.3		1		UNL1		-0.5577
22		C		-4.2195		-1.2524		-0.7748		C.ar		1		UNL1		0.1614
23		C		-4.7346		-0.1687		-1.5019		C.ar		1		UNL1		-0.2107
24		C		-5.7890		0.5948		-1.0015		C.ar		1		UNL1		-0.1354
25		C		-6.3236		0.2571		0.2368		C.ar		1		UNL1		0.2748
26		N		-7.4418		1.0531		0.7734		N.pl3		1		UNL1		0.3841
27		O		-7.8584		1.9840		0.0863		O.2		1		UNL1		-0.3876
28		O		-7.8897		0.7339		1.8733		O.2		1		UNL1		-0.3877
29		C		-5.8334		-0.8124		0.9860		C.ar		1		UNL1		-0.1460
30		C		-4.7790		-1.5605		0.4756		C.ar		1		UNL1		-0.1733
31		N		-1.3321		0.2383		-0.5179		N.ar		1		UNL1		-0.6503
32		C		-0.6317		1.4693		-0.4738		C.ar		1		UNL1		0.5798
33		O		-1.1961		2.4906		-0.8451		O.2		1		UNL1		-0.5194
34		H		1.2469		3.1846		-1.9992		H		1		UNL1		0.1704
35		H		2.7533		2.3005		-1.6650		H		1		UNL1		0.1548
36		H		2.6012		4.0083		-1.2068		H		1		UNL1		0.1500
37		H		0.8265		3.4408		0.4462		H		1		UNL1		0.1743
38		H		2.3244		2.5919		0.8183		H		1		UNL1		0.1435
39		H		2.8164		0.8260		1.5807		H		1		UNL1		0.1972
40		H		2.3398		-1.2710		-1.3947		H		1		UNL1		0.1508
41		H		4.0831		-1.6788		-3.1024		H		1		UNL1		0.1360
42		H		6.4307		-1.0090		-2.6707		H		1		UNL1		0.1353
43		H		8.1156		-0.0384		-1.1992		H		1		UNL1		0.1349
44		H		8.7610		0.9824		0.9621		H		1		UNL1		0.1359
45		H		7.0350		1.3470		2.7245		H		1		UNL1		0.1375
46		H		4.7133		0.7222		2.3424		H		1		UNL1		0.1409
47		H		-3.4742		-3.0891		-1.6170		H		1		UNL1		0.2212
48		H		-2.7332		-1.6497		-2.2975		H		1		UNL1		0.2003
49		H		-4.3171		0.0789		-2.4749		H		1		UNL1		0.1586
50		H		-6.1936		1.4357		-1.5509		H		1		UNL1		0.1961
51		H		-6.2778		-1.0388		1.9473		H		1		UNL1		0.1943
52		H		-4.3784		-2.3865		1.0556		H		1		UNL1		0.1705
53		H		-2.3068		0.3175		-0.7900		H		1		UNL1		0.3597
@<TRIPOS>BOND
1		41		10		1
2		42		11		1
3		49		23		1
4		48		21		1
5		10		11		ar
6		10		9		ar
7		34		1		1
8		11		12		ar
9		35		1		1
10		47		21		1
11		50		24		1
12		23		24		ar
13		23		22		ar
14		40		9		1
15		21		22		1
16		21		20		1
17		1		36		1
18		1		2		1
19		43		13		1
20		9		8		ar
21		24		25		ar
22		33		32		2
23		53		31		1
24		22		30		ar
25		12		13		ar
26		12		17		ar
27		31		32		ar
28		31		19		ar
29		32		3		ar
30		13		14		ar
31		20		19		1
32		19		18		ar
33		8		17		ar
34		8		5		1
35		3		2		1
36		3		4		ar
37		27		26		2
38		2		37		1
39		2		38		1
40		25		26		1
41		25		29		ar
42		18		4		ar
43		17		16		ar
44		4		5		1
45		30		29		ar
46		30		52		1
47		14		44		1
48		14		15		ar
49		26		28		2
50		29		51		1
51		5		39		1
52		5		6		1
53		16		15		ar
54		16		46		1
55		15		45		1
56		6		7		3

