@<TRIPOS>MOLECULE
LJ-2006-CPB-1249-12
 43 45 0 0 0
SMALL
MULLIKEN_CHARGES
****
Gaussian 16 #p B3LYP/6-31G* opt
@<TRIPOS>ATOM
1		C		-1.9231		-4.0182		-0.4254		C.2		1		UNL1		-0.3215
2		C		-2.3316		-3.0426		0.3837		C.2		1		UNL1		-0.0429
3		C		-1.4058		-2.0443		1.0275		C.3		1		UNL1		-0.2100
4		N		-1.7208		-0.6384		0.6676		N.ar		1		UNL1		-0.5247
5		C		-1.0237		0.0687		-0.3082		C.ar		1		UNL1		0.2239
6		C		0.0383		-0.7056		-1.0781		C.2		1		UNL1		0.2969
7		O		-0.3769		-1.4263		-1.9759		O.2		1		UNL1		-0.4401
8		C		1.5073		-0.5504		-0.8253		C.ar		1		UNL1		0.0072
9		C		2.3069		-1.0170		-1.8641		C.ar		1		UNL1		-0.1603
10		C		3.7083		-0.9243		-1.8278		C.ar		1		UNL1		-0.1350
11		C		4.3224		-0.3624		-0.7319		C.ar		1		UNL1		-0.1750
12		C		3.5639		0.1118		0.3687		C.ar		1		UNL1		0.1304
13		C		4.2225		0.6654		1.4996		C.ar		1		UNL1		-0.1917
14		C		3.5114		1.1097		2.5883		C.ar		1		UNL1		-0.1289
15		C		2.1028		1.0073		2.5839		C.ar		1		UNL1		-0.1389
16		C		1.4321		0.4800		1.5011		C.ar		1		UNL1		-0.1926
17		C		2.1263		0.0224		0.3464		C.ar		1		UNL1		0.0895
18		C		-1.3255		1.3483		-0.6580		C.ar		1		UNL1		0.0384
19		C		-0.6234		2.1245		-1.7473		C.3		1		UNL1		-0.3322
20		C		-1.3821		2.0826		-3.0863		C.3		1		UNL1		-0.4482
21		C		-2.4441		2.0151		0.0110		C.ar		1		UNL1		0.6029
22		O		-2.8293		3.1546		-0.2116		O.2		1		UNL1		-0.5096
23		N		-3.0786		1.2320		0.9869		N.ar		1		UNL1		-0.7040
24		C		-2.8018		-0.0728		1.3479		C.ar		1		UNL1		0.7826
25		O		-3.4390		-0.6774		2.1969		O.2		1		UNL1		-0.5211
26		H		-2.6212		-4.7365		-0.8462		H		1		UNL1		0.1494
27		H		-0.8790		-4.1336		-0.7071		H		1		UNL1		0.1473
28		H		-3.3818		-2.9377		0.6466		H		1		UNL1		0.1623
29		H		-1.4907		-2.1024		2.1161		H		1		UNL1		0.1958
30		H		-0.3669		-2.2410		0.7566		H		1		UNL1		0.1670
31		H		1.8113		-1.4513		-2.7254		H		1		UNL1		0.1744
32		H		4.2954		-1.2889		-2.6654		H		1		UNL1		0.1462
33		H		5.4056		-0.2765		-0.6900		H		1		UNL1		0.1452
34		H		5.3080		0.7248		1.4864		H		1		UNL1		0.1393
35		H		4.0241		1.5301		3.4485		H		1		UNL1		0.1414
36		H		1.5361		1.3469		3.4465		H		1		UNL1		0.1438
37		H		0.3548		0.4170		1.5495		H		1		UNL1		0.1564
38		H		-0.5375		3.1650		-1.4167		H		1		UNL1		0.1703
39		H		0.3946		1.7465		-1.8881		H		1		UNL1		0.1421
40		H		-2.3877		2.4980		-2.9692		H		1		UNL1		0.1696
41		H		-0.8558		2.6745		-3.8438		H		1		UNL1		0.1441
42		H		-1.4716		1.0543		-3.4533		H		1		UNL1		0.1567
43		H		-3.8653		1.6571		1.4650		H		1		UNL1		0.3536
@<TRIPOS>BOND
1		41		20		1
2		42		20		1
3		20		40		1
4		20		19		1
5		31		9		1
6		32		10		1
7		7		6		2
8		39		19		1
9		9		10		ar
10		9		8		ar
11		10		11		ar
12		19		38		1
13		19		18		1
14		6		8		1
15		6		5		1
16		26		1		1
17		8		17		ar
18		11		33		1
19		11		12		ar
20		27		1		1
21		18		5		ar
22		18		21		ar
23		1		2		2
24		5		4		ar
25		22		21		2
26		21		23		ar
27		17		12		ar
28		17		16		ar
29		12		13		ar
30		2		28		1
31		2		3		1
32		4		3		1
33		4		24		ar
34		30		3		1
35		23		24		ar
36		23		43		1
37		3		29		1
38		24		25		2
39		34		13		1
40		13		14		ar
41		16		37		1
42		16		15		ar
43		15		14		ar
44		15		36		1
45		14		35		1

