@<TRIPOS>MOLECULE
LJ-2006-CPB-1249-22
 46 48 0 0 0
SMALL
MULLIKEN_CHARGES
****
Gaussian 16 #p B3LYP/6-31G* opt
@<TRIPOS>ATOM
1		C		-3.5833		3.6404		0.7203		C.2		1		UNL1		-0.3202
2		C		-2.5551		2.8230		0.9436		C.2		1		UNL1		-0.0554
3		C		-1.6713		2.2940		-0.1562		C.3		1		UNL1		-0.2189
4		N		-1.7883		0.8243		-0.3304		N.ar		1		UNL1		-0.5275
5		C		-0.9668		-0.0843		0.3321		C.ar		1		UNL1		0.2100
6		C		0.0488		0.5314		1.2883		C.2		1		UNL1		0.2896
7		O		-0.3954		0.9368		2.3556		O.2		1		UNL1		-0.4451
8		C		1.5158		0.5827		0.9946		C.ar		1		UNL1		0.0135
9		C		2.3132		0.7369		2.1241		C.ar		1		UNL1		-0.1580
10		C		3.7162		0.7585		2.0484		C.ar		1		UNL1		-0.1353
11		C		4.3317		0.6348		0.8237		C.ar		1		UNL1		-0.1744
12		C		3.5723		0.5049		-0.3672		C.ar		1		UNL1		0.1298
13		C		4.2281		0.4118		-1.6243		C.ar		1		UNL1		-0.1915
14		C		3.5118		0.3162		-2.7932		C.ar		1		UNL1		-0.1287
15		C		2.1001		0.3202		-2.7438		C.ar		1		UNL1		-0.1395
16		C		1.4321		0.4034		-1.5407		C.ar		1		UNL1		-0.1938
17		C		2.1337		0.4825		-0.3052		C.ar		1		UNL1		0.0933
18		C		-1.1108		-1.4370		0.2425		C.ar		1		UNL1		0.0501
19		C		-0.2279		-2.4230		0.9962		C.3		1		UNL1		-0.1500
20		C		0.5357		-3.3655		0.0451		C.3		1		UNL1		-0.4580
21		C		-1.0362		-3.2115		2.0470		C.3		1		UNL1		-0.4540
22		C		-2.1976		-1.9614		-0.5922		C.ar		1		UNL1		0.6011
23		O		-2.4739		-3.1418		-0.7670		O.2		1		UNL1		-0.5104
24		N		-2.9569		-0.9746		-1.2367		N.ar		1		UNL1		-0.7007
25		C		-2.8349		0.3992		-1.1553		C.ar		1		UNL1		0.7856
26		O		-3.5630		1.1665		-1.7630		O.2		1		UNL1		-0.5134
27		H		-3.8553		3.9555		-0.2842		H		1		UNL1		0.1574
28		H		-4.1969		4.0166		1.5346		H		1		UNL1		0.1474
29		H		-2.3078		2.4931		1.9501		H		1		UNL1		0.1675
30		H		-0.6185		2.5191		0.0388		H		1		UNL1		0.1698
31		H		-1.9431		2.7402		-1.1133		H		1		UNL1		0.1946
32		H		1.8179		0.8256		3.0849		H		1		UNL1		0.1736
33		H		4.3040		0.8645		2.9553		H		1		UNL1		0.1466
34		H		5.4165		0.6414		0.7483		H		1		UNL1		0.1454
35		H		5.3151		0.4251		-1.6414		H		1		UNL1		0.1396
36		H		4.0225		0.2471		-3.7493		H		1		UNL1		0.1417
37		H		1.5294		0.2609		-3.6664		H		1		UNL1		0.1444
38		H		0.3516		0.4172		-1.5549		H		1		UNL1		0.1578
39		H		0.5230		-1.8412		1.5426		H		1		UNL1		0.1323
40		H		1.2031		-4.0166		0.6218		H		1		UNL1		0.1383
41		H		-0.1582		-3.9937		-0.5184		H		1		UNL1		0.1830
42		H		1.1478		-2.7981		-0.6650		H		1		UNL1		0.1423
43		H		-1.5226		-2.5337		2.7574		H		1		UNL1		0.1463
44		H		-0.3693		-3.8737		2.6118		H		1		UNL1		0.1390
45		H		-1.8042		-3.8231		1.5669		H		1		UNL1		0.1812
46		H		-3.7143		-1.3089		-1.8222		H		1		UNL1		0.3535
@<TRIPOS>BOND
1		36		14		1
2		37		15		1
3		14		15		ar
4		14		13		ar
5		15		16		ar
6		46		24		1
7		26		25		2
8		35		13		1
9		13		12		ar
10		38		16		1
11		16		17		ar
12		24		25		ar
13		24		22		ar
14		25		4		ar
15		31		3		1
16		23		22		2
17		42		20		1
18		22		18		ar
19		41		20		1
20		12		17		ar
21		12		11		ar
22		4		3		1
23		4		5		ar
24		17		8		ar
25		27		1		1
26		3		30		1
27		3		2		1
28		20		40		1
29		20		19		1
30		18		5		ar
31		18		19		1
32		5		6		1
33		1		2		2
34		1		28		1
35		34		11		1
36		11		10		ar
37		2		29		1
38		8		6		1
39		8		9		ar
40		19		39		1
41		19		21		1
42		6		7		2
43		45		21		1
44		21		44		1
45		21		43		1
46		10		9		ar
47		10		33		1
48		9		32		1

