@<TRIPOS>MOLECULE
LJ-2007-JMC-1778-4J
 49 52 0 0 0
SMALL
MULLIKEN_CHARGES
****
Gaussian 16 #p B3LYP/6-31G* opt
@<TRIPOS>ATOM
1		C		-1.8849		4.6640		0.7540		C.3		1		UNL1		-0.4497
2		C		-1.7745		3.7607		-0.4882		C.3		1		UNL1		-0.3151
3		C		-0.7384		2.6762		-0.3286		C.ar		1		UNL1		0.0558
4		C		-0.9826		1.3599		-0.0106		C.ar		1		UNL1		0.1180
5		C		-2.3891		0.8670		0.3041		C.2		1		UNL1		0.3636
6		O		-3.0624		1.5183		1.0939		O.2		1		UNL1		-0.4627
7		C		-2.8744		-0.3778		-0.3578		C.ar		1		UNL1		0.0592
8		C		-2.3071		-0.7318		-1.5742		C.ar		1		UNL1		-0.1723
9		C		-2.7629		-1.8414		-2.3130		C.ar		1		UNL1		-0.1380
10		C		-3.7823		-2.6183		-1.8153		C.ar		1		UNL1		-0.1765
11		C		-4.3895		-2.3163		-0.5680		C.ar		1		UNL1		0.1324
12		C		-5.4312		-3.1358		-0.0568		C.ar		1		UNL1		-0.1965
13		C		-6.0226		-2.8542		1.1522		C.ar		1		UNL1		-0.1279
14		C		-5.5882		-1.7351		1.8978		C.ar		1		UNL1		-0.1377
15		C		-4.5837		-0.9146		1.4300		C.ar		1		UNL1		-0.1815
16		C		-3.9492		-1.1732		0.1833		C.ar		1		UNL1		0.0717
17		N		-0.0128		0.3924		0.1361		N.ar		1		UNL1		-0.4983
18		C		1.2264		0.7538		-0.0166		C.ar		1		UNL1		0.3225
19		S		2.4461		-0.5184		0.2133		S.3		1		UNL1		0.2244
20		C		4.0548		0.3623		-0.0676		C.3		1		UNL1		-0.5460
21		C		5.1829		-0.6241		0.1133		C.ar		1		UNL1		0.1418
22		C		5.6637		-1.3613		-0.9763		C.ar		1		UNL1		-0.1586
23		C		6.7020		-2.2772		-0.8084		C.ar		1		UNL1		-0.1288
24		C		7.2684		-2.4692		0.4532		C.ar		1		UNL1		-0.1242
25		C		6.7917		-1.7421		1.5456		C.ar		1		UNL1		-0.1289
26		C		5.7535		-0.8264		1.3766		C.ar		1		UNL1		-0.1581
27		N		1.5806		2.0292		-0.3390		N.ar		1		UNL1		-0.6514
28		C		0.6487		3.0799		-0.5281		C.ar		1		UNL1		0.5821
29		O		1.0604		4.1936		-0.8290		O.2		1		UNL1		-0.5224
30		H		-2.2091		4.0787		1.6190		H		1		UNL1		0.1683
31		H		-2.6179		5.4597		0.5789		H		1		UNL1		0.1420
32		H		-0.9222		5.1339		0.9782		H		1		UNL1		0.1597
33		H		-2.7514		3.3208		-0.7038		H		1		UNL1		0.1504
34		H		-1.4838		4.3742		-1.3488		H		1		UNL1		0.1590
35		H		-1.4986		-0.1328		-1.9783		H		1		UNL1		0.1453
36		H		-2.3032		-2.0774		-3.2682		H		1		UNL1		0.1365
37		H		-4.1398		-3.4816		-2.3718		H		1		UNL1		0.1369
38		H		-5.7490		-3.9955		-0.6421		H		1		UNL1		0.1309
39		H		-6.8178		-3.4877		1.5357		H		1		UNL1		0.1320
40		H		-6.0539		-1.5152		2.8548		H		1		UNL1		0.1342
41		H		-4.2753		-0.0536		2.0058		H		1		UNL1		0.1759
42		H		4.1423		1.1801		0.6548		H		1		UNL1		0.1934
43		H		4.0653		0.7722		-1.0828		H		1		UNL1		0.1910
44		H		5.2239		-1.2148		-1.9601		H		1		UNL1		0.1364
45		H		7.0692		-2.8389		-1.6628		H		1		UNL1		0.1395
46		H		8.0786		-3.1810		0.5841		H		1		UNL1		0.1390
47		H		7.2289		-1.8860		2.5297		H		1		UNL1		0.1403
48		H		5.3834		-0.2628		2.2297		H		1		UNL1		0.1387
49		H		2.5470		2.3062		-0.4653		H		1		UNL1		0.3540
@<TRIPOS>BOND
1		36		9		1
2		37		10		1
3		9		10		ar
4		9		8		ar
5		35		8		1
6		44		22		1
7		10		11		ar
8		45		23		1
9		8		7		ar
10		34		2		1
11		43		20		1
12		22		23		ar
13		22		21		ar
14		29		28		2
15		23		24		ar
16		33		2		1
17		38		12		1
18		11		12		ar
19		11		16		ar
20		28		27		ar
21		28		3		ar
22		2		3		1
23		2		1		1
24		49		27		1
25		7		16		ar
26		7		5		1
27		27		18		ar
28		3		4		ar
29		20		21		1
30		20		19		1
31		20		42		1
32		12		13		ar
33		18		17		ar
34		18		19		1
35		4		17		ar
36		4		5		1
37		21		26		ar
38		16		15		ar
39		5		6		2
40		24		46		1
41		24		25		ar
42		31		1		1
43		1		32		1
44		1		30		1
45		13		39		1
46		13		14		ar
47		26		25		ar
48		26		48		1
49		15		14		ar
50		15		41		1
51		25		47		1
52		14		40		1

