@<TRIPOS>MOLECULE
LJ-2006-CPB-1249-21
 50 52 0 0 0
SMALL
MULLIKEN_CHARGES
****
Gaussian 16 #p B3LYP/6-31G* opt
@<TRIPOS>ATOM
1		C		-1.0061		3.8589		1.1256		C.3		1		UNL1		-0.4533
2		C		-1.1819		3.1803		-0.2438		C.3		1		UNL1		-0.3264
3		C		-1.9834		1.8978		-0.1977		C.ar		1		UNL1		0.0242
4		C		-1.4900		0.6492		-0.4233		C.ar		1		UNL1		0.2510
5		C		-0.0374		0.4357		-0.8516		C.2		1		UNL1		0.3278
6		O		0.1452		0.0446		-1.9983		O.2		1		UNL1		-0.4680
7		C		1.0521		0.7350		0.1137		C.ar		1		UNL1		0.0464
8		C		0.7572		0.6530		1.4685		C.ar		1		UNL1		-0.1785
9		C		1.7438		0.8532		2.4542		C.ar		1		UNL1		-0.1409
10		C		3.0301		1.1624		2.0771		C.ar		1		UNL1		-0.1745
11		C		3.3860		1.2732		0.7071		C.ar		1		UNL1		0.1308
12		C		4.7151		1.6058		0.3321		C.ar		1		UNL1		-0.1955
13		C		5.0680		1.7178		-0.9923		C.ar		1		UNL1		-0.1271
14		C		4.0963		1.4997		-1.9948		C.ar		1		UNL1		-0.1363
15		C		2.7976		1.1703		-1.6682		C.ar		1		UNL1		-0.1859
16		C		2.3960		1.0455		-0.3095		C.ar		1		UNL1		0.0771
17		N		-2.3013		-0.4893		-0.4389		N.ar		1		UNL1		-0.5687
18		C		-1.7307		-1.8105		-0.6761		C.3		1		UNL1		0.0735
19		O		-0.7482		-2.0348		0.3185		O.3		1		UNL1		-0.4835
20		C		0.2485		-2.9920		-0.0373		C.3		1		UNL1		-0.0567
21		C		-0.2657		-4.4339		0.0700		C.3		1		UNL1		-0.0444
22		O		0.7538		-5.3741		-0.2200		O.3		1		UNL1		-0.4580
23		C		1.5834		-5.6909		0.8824		C.3		1		UNL1		-0.2023
24		C		-3.6738		-0.4303		-0.1644		C.ar		1		UNL1		0.7835
25		O		-4.4028		-1.4078		-0.1331		O.2		1		UNL1		-0.5109
26		N		-4.1407		0.8499		0.0626		N.ar		1		UNL1		-0.6996
27		C		-3.4236		2.0510		0.0479		C.ar		1		UNL1		0.6087
28		O		-4.0003		3.1140		0.2310		O.2		1		UNL1		-0.5047
29		H		-1.9794		4.0765		1.5729		H		1		UNL1		0.1779
30		H		-0.4357		3.2255		1.8130		H		1		UNL1		0.1440
31		H		-0.4644		4.8043		1.0099		H		1		UNL1		0.1462
32		H		-1.7159		3.8720		-0.9067		H		1		UNL1		0.1712
33		H		-0.2033		3.0028		-0.6987		H		1		UNL1		0.1471
34		H		-0.2501		0.3960		1.7762		H		1		UNL1		0.1637
35		H		1.4810		0.7641		3.5040		H		1		UNL1		0.1444
36		H		3.7992		1.3271		2.8282		H		1		UNL1		0.1428
37		H		5.4486		1.7743		1.1169		H		1		UNL1		0.1360
38		H		6.0866		1.9740		-1.2696		H		1		UNL1		0.1376
39		H		4.3761		1.5900		-3.0410		H		1		UNL1		0.1396
40		H		2.0726		0.9898		-2.4495		H		1		UNL1		0.1774
41		H		-2.5608		-2.5147		-0.6108		H		1		UNL1		0.1986
42		H		-1.2767		-1.8409		-1.6726		H		1		UNL1		0.1780
43		H		1.0710		-2.8248		0.6638		H		1		UNL1		0.1553
44		H		0.6227		-2.8010		-1.0533		H		1		UNL1		0.1562
45		H		-1.0594		-4.6085		-0.6655		H		1		UNL1		0.1516
46		H		-0.6937		-4.5984		1.0713		H		1		UNL1		0.1354
47		H		0.9983		-6.0987		1.7215		H		1		UNL1		0.1364
48		H		2.1572		-4.8259		1.2474		H		1		UNL1		0.1334
49		H		2.2871		-6.4528		0.5375		H		1		UNL1		0.1640
50		H		-5.1369		0.9221		0.2375		H		1		UNL1		0.3558
@<TRIPOS>BOND
1		39		14		1
2		40		15		1
3		6		5		2
4		14		15		ar
5		14		13		ar
6		42		18		1
7		15		16		ar
8		38		13		1
9		44		20		1
10		13		12		ar
11		32		2		1
12		5		4		1
13		5		7		1
14		33		2		1
15		18		41		1
16		18		17		1
17		18		19		1
18		45		21		1
19		17		4		ar
20		17		24		ar
21		4		3		ar
22		16		7		ar
23		16		11		ar
24		2		3		1
25		2		1		1
26		22		21		1
27		22		23		1
28		3		27		ar
29		24		25		2
30		24		26		ar
31		20		21		1
32		20		19		1
33		20		43		1
34		27		26		ar
35		27		28		2
36		26		50		1
37		21		46		1
38		7		8		ar
39		12		11		ar
40		12		37		1
41		49		23		1
42		11		10		ar
43		23		48		1
44		23		47		1
45		31		1		1
46		1		29		1
47		1		30		1
48		8		34		1
49		8		9		ar
50		10		9		ar
51		10		36		1
52		9		35		1

