@<TRIPOS>MOLECULE
LJ-2007-JMC-1778-3K
 47 49 0 0 0
SMALL
MULLIKEN_CHARGES
****
Gaussian 16 #p B3LYP/6-31G* opt
@<TRIPOS>ATOM
1		C		0.4527		4.0263		1.2169		C.3		1		UNL1		-0.4478
2		C		0.4928		3.1204		-0.0283		C.3		1		UNL1		-0.3407
3		C		-0.6572		2.1447		-0.0850		C.ar		1		UNL1		0.0587
4		C		-0.6124		0.8273		0.2967		C.ar		1		UNL1		0.2134
5		C		0.6721		0.1972		0.8422		C.3		1		UNL1		-0.3317
6		C		0.3565		-0.8829		1.7973		C.1		1		UNL1		0.3943
7		N		0.1555		-1.7298		2.5652		N.1		1		UNL1		-0.4872
8		C		1.6395		-0.3106		-0.2439		C.ar		1		UNL1		0.1077
9		C		1.1773		-0.6083		-1.5088		C.ar		1		UNL1		-0.1848
10		C		2.0527		-1.0580		-2.5246		C.ar		1		UNL1		-0.1366
11		C		3.3933		-1.2046		-2.2653		C.ar		1		UNL1		-0.1825
12		C		3.9152		-0.9215		-0.9752		C.ar		1		UNL1		0.1368
13		C		5.2989		-1.0745		-0.6938		C.ar		1		UNL1		-0.1932
14		C		5.8023		-0.8131		0.5594		C.ar		1		UNL1		-0.1300
15		C		4.9333		-0.3901		1.5911		C.ar		1		UNL1		-0.1338
16		C		3.5863		-0.2275		1.3514		C.ar		1		UNL1		-0.1928
17		C		3.0305		-0.4766		0.0652		C.ar		1		UNL1		0.0915
18		N		-1.6763		-0.0406		0.2219		N.ar		1		UNL1		-0.5075
19		C		-2.8144		0.4236		-0.2045		C.ar		1		UNL1		0.3275
20		S		-4.2696		-0.5814		-0.3004		S.3		1		UNL1		0.1405
21		C		-3.6537		-2.2080		0.3735		C.3		1		UNL1		-0.2389
22		C		-4.8692		-2.9436		0.9439		C.3		1		UNL1		-0.4570
23		C		-2.9173		-3.0131		-0.6959		C.3		1		UNL1		-0.4366
24		N		-2.9688		1.7214		-0.5927		N.ar		1		UNL1		-0.6511
25		C		-1.9276		2.6767		-0.5679		C.ar		1		UNL1		0.5839
26		O		-2.1494		3.8258		-0.9286		O.2		1		UNL1		-0.5213
27		H		-0.4789		4.5992		1.2397		H		1		UNL1		0.1752
28		H		1.2886		4.7345		1.2030		H		1		UNL1		0.1504
29		H		0.5180		3.4423		2.1428		H		1		UNL1		0.1408
30		H		0.4343		3.7541		-0.9200		H		1		UNL1		0.1750
31		H		1.4488		2.5896		-0.0814		H		1		UNL1		0.1506
32		H		1.1911		0.9708		1.4183		H		1		UNL1		0.2022
33		H		0.1232		-0.4941		-1.7372		H		1		UNL1		0.1477
34		H		1.6544		-1.2802		-3.5105		H		1		UNL1		0.1371
35		H		4.0746		-1.5428		-3.0421		H		1		UNL1		0.1355
36		H		5.9559		-1.4079		-1.4936		H		1		UNL1		0.1349
37		H		6.8627		-0.9361		0.7614		H		1		UNL1		0.1358
38		H		5.3298		-0.1974		2.5841		H		1		UNL1		0.1375
39		H		2.9439		0.0728		2.1722		H		1		UNL1		0.1405
40		H		-2.9599		-1.9360		1.1726		H		1		UNL1		0.2209
41		H		-4.5415		-3.9019		1.3624		H		1		UNL1		0.1663
42		H		-5.6138		-3.1580		0.1681		H		1		UNL1		0.1581
43		H		-5.3538		-2.3705		1.7400		H		1		UNL1		0.1694
44		H		-2.5572		-3.9520		-0.2572		H		1		UNL1		0.1600
45		H		-2.0502		-2.4646		-1.0713		H		1		UNL1		0.1736
46		H		-3.5766		-3.2571		-1.5362		H		1		UNL1		0.1511
47		H		-3.8681		2.0721		-0.9080		H		1		UNL1		0.3568
@<TRIPOS>BOND
1		34		10		1
2		35		11		1
3		10		11		ar
4		10		9		ar
5		11		12		ar
6		33		9		1
7		46		23		1
8		9		8		ar
9		36		13		1
10		45		23		1
11		12		13		ar
12		12		17		ar
13		26		25		2
14		30		2		1
15		47		24		1
16		23		44		1
17		23		21		1
18		13		14		ar
19		24		25		ar
20		24		19		ar
21		25		3		ar
22		20		19		1
23		20		21		1
24		8		17		ar
25		8		5		1
26		19		18		ar
27		3		2		1
28		3		4		ar
29		31		2		1
30		2		1		1
31		17		16		ar
32		42		22		1
33		18		4		ar
34		4		5		1
35		21		22		1
36		21		40		1
37		14		37		1
38		14		15		ar
39		5		32		1
40		5		6		1
41		22		41		1
42		22		43		1
43		28		1		1
44		1		27		1
45		1		29		1
46		16		15		ar
47		16		39		1
48		15		38		1
49		6		7		3

