@<TRIPOS>MOLECULE
LJ-2007-EJMC-198-21
 53 56 0 0 0
SMALL
MULLIKEN_CHARGES
****
Gaussian 16 #p B3LYP/6-31G* opt
@<TRIPOS>ATOM
1		C		-3.9890		1.8107		0.8165		C.3		1		UNL1		-0.4559
2		C		-3.2038		2.1067		-0.4738		C.3		1		UNL1		-0.3284
3		C		-1.7078		2.2113		-0.2743		C.ar		1		UNL1		0.0394
4		C		-0.7825		1.3308		-0.7459		C.ar		1		UNL1		0.2225
5		C		-1.1982		0.1637		-1.6367		C.2		1		UNL1		0.3212
6		O		-0.8937		0.2541		-2.8192		O.2		1		UNL1		-0.4479
7		C		-2.0302		-0.9762		-1.1421		C.ar		1		UNL1		0.0216
8		C		-2.7951		-1.5901		-2.1273		C.ar		1		UNL1		-0.1612
9		C		-3.6740		-2.6480		-1.8343		C.ar		1		UNL1		-0.1357
10		C		-3.7801		-3.1057		-0.5408		C.ar		1		UNL1		-0.1752
11		C		-2.9990		-2.5411		0.5001		C.ar		1		UNL1		0.1295
12		C		-3.0937		-3.0488		1.8243		C.ar		1		UNL1		-0.1923
13		C		-2.3202		-2.5355		2.8377		C.ar		1		UNL1		-0.1291
14		C		-1.4074		-1.4937		2.5565		C.ar		1		UNL1		-0.1440
15		C		-1.2936		-0.9757		1.2843		C.ar		1		UNL1		-0.1820
16		C		-2.0937		-1.4602		0.2127		C.ar		1		UNL1		0.0900
17		N		0.5960		1.5178		-0.5819		N.ar		1		UNL1		-0.5519
18		C		1.5734		0.5867		-1.1924		C.3		1		UNL1		0.0440
19		O		1.5127		-0.6909		-0.6180		O.3		1		UNL1		-0.4640
20		C		2.2741		-0.8406		0.5993		C.3		1		UNL1		-0.1395
21		C		3.7612		-0.9395		0.3487		C.ar		1		UNL1		0.1332
22		C		4.6215		0.1122		0.6862		C.ar		1		UNL1		-0.1852
23		C		5.9936		0.0101		0.4416		C.ar		1		UNL1		-0.1323
24		C		6.5156		-1.1424		-0.1452		C.ar		1		UNL1		-0.1261
25		C		5.6622		-2.1943		-0.4919		C.ar		1		UNL1		-0.1314
26		C		4.2947		-2.0919		-0.2463		C.ar		1		UNL1		-0.1629
27		C		1.1077		2.5830		0.1657		C.ar		1		UNL1		0.7797
28		O		2.2976		2.7388		0.4010		O.2		1		UNL1		-0.5226
29		N		0.1475		3.4615		0.6258		N.ar		1		UNL1		-0.6980
30		C		-1.2398		3.4026		0.4444		C.ar		1		UNL1		0.6045
31		O		-1.9539		4.2947		0.8801		O.2		1		UNL1		-0.5041
32		H		-3.8100		2.5914		1.5602		H		1		UNL1		0.1765
33		H		-3.7023		0.8455		1.2453		H		1		UNL1		0.1527
34		H		-5.0635		1.7829		0.6034		H		1		UNL1		0.1440
35		H		-3.4347		1.3514		-1.2298		H		1		UNL1		0.1455
36		H		-3.5448		3.0691		-0.8746		H		1		UNL1		0.1706
37		H		-2.7102		-1.2186		-3.1428		H		1		UNL1		0.1705
38		H		-4.2683		-3.0907		-2.6281		H		1		UNL1		0.1444
39		H		-4.4620		-3.9168		-0.2965		H		1		UNL1		0.1429
40		H		-3.7898		-3.8613		2.0174		H		1		UNL1		0.1378
41		H		-2.3994		-2.9313		3.8461		H		1		UNL1		0.1392
42		H		-0.7826		-1.0977		3.3524		H		1		UNL1		0.1388
43		H		-0.5695		-0.1951		1.1031		H		1		UNL1		0.1580
44		H		2.5498		1.0568		-1.0773		H		1		UNL1		0.2017
45		H		1.3218		0.4734		-2.2440		H		1		UNL1		0.2035
46		H		1.8882		-1.7631		1.0421		H		1		UNL1		0.1605
47		H		2.0547		-0.0137		1.2867		H		1		UNL1		0.1481
48		H		4.2117		1.0178		1.1257		H		1		UNL1		0.1635
49		H		6.6513		0.8333		0.7076		H		1		UNL1		0.1343
50		H		7.5830		-1.2232		-0.3338		H		1		UNL1		0.1312
51		H		6.0649		-3.0939		-0.9500		H		1		UNL1		0.1313
52		H		3.6299		-2.9086		-0.5183		H		1		UNL1		0.1342
53		H		0.5007		4.2595		1.1421		H		1		UNL1		0.3548
@<TRIPOS>BOND
1		37		8		1
2		6		5		2
3		38		9		1
4		45		18		1
5		8		9		ar
6		8		7		ar
7		9		10		ar
8		5		7		1
9		5		4		1
10		35		2		1
11		18		44		1
12		18		19		1
13		18		17		1
14		7		16		ar
15		51		25		1
16		36		2		1
17		4		17		ar
18		4		3		ar
19		19		20		1
20		17		27		ar
21		10		39		1
22		10		11		ar
23		52		26		1
24		25		26		ar
25		25		24		ar
26		2		3		1
27		2		1		1
28		50		24		1
29		3		30		ar
30		26		21		ar
31		24		23		ar
32		27		28		2
33		27		29		ar
34		16		11		ar
35		16		15		ar
36		21		20		1
37		21		22		ar
38		23		22		ar
39		23		49		1
40		30		29		ar
41		30		31		2
42		11		12		ar
43		20		46		1
44		20		47		1
45		34		1		1
46		29		53		1
47		22		48		1
48		1		33		1
49		1		32		1
50		43		15		1
51		15		14		ar
52		12		40		1
53		12		13		ar
54		14		13		ar
55		14		42		1
56		13		41		1

