@<TRIPOS>MOLECULE
LJ-2007-EJMC-198-9
 46 48 0 0 0
SMALL
MULLIKEN_CHARGES
****
Gaussian 16 #p B3LYP/6-31G* opt
@<TRIPOS>ATOM
1		C		2.7453		-3.2549		-0.5806		C.3		1		UNL1		-0.5377
2		C		1.4770		-3.1031		0.2224		C.2		1		UNL1		0.2010
3		C		0.4483		-4.1840		-0.0066		C.3		1		UNL1		-0.5064
4		C		1.2328		-2.1060		1.0901		C.2		1		UNL1		-0.2036
5		C		2.1708		-0.9827		1.4581		C.3		1		UNL1		-0.2191
6		N		2.0394		0.2422		0.6099		N.ar		1		UNL1		-0.5461
7		C		0.8870		1.0307		0.5993		C.ar		1		UNL1		0.2445
8		C		-0.2169		0.6295		1.5669		C.2		1		UNL1		0.3120
9		O		0.0694		0.5987		2.7575		O.2		1		UNL1		-0.4487
10		C		-1.6226		0.3891		1.1112		C.ar		1		UNL1		0.0064
11		C		-2.5892		0.6641		2.0716		C.ar		1		UNL1		-0.1619
12		C		-3.9638		0.5625		1.7911		C.ar		1		UNL1		-0.1364
13		C		-4.3751		0.1715		0.5373		C.ar		1		UNL1		-0.1753
14		C		-3.4334		-0.1612		-0.4707		C.ar		1		UNL1		0.1284
15		C		-3.8737		-0.6025		-1.7477		C.ar		1		UNL1		-0.1931
16		C		-2.9735		-0.9659		-2.7207		C.ar		1		UNL1		-0.1285
17		C		-1.5889		-0.9164		-2.4421		C.ar		1		UNL1		-0.1419
18		C		-1.1273		-0.4873		-1.2162		C.ar		1		UNL1		-0.1886
19		C		-2.0243		-0.0704		-0.1937		C.ar		1		UNL1		0.0941
20		C		0.7815		2.1815		-0.1252		C.ar		1		UNL1		0.0274
21		C		-0.4112		3.1009		-0.1635		C.3		1		UNL1		-0.5173
22		C		1.9155		2.5990		-0.9554		C.ar		1		UNL1		0.6016
23		O		1.9462		3.6008		-1.6567		O.2		1		UNL1		-0.5051
24		N		3.0114		1.7342		-0.9028		N.ar		1		UNL1		-0.6967
25		C		3.1552		0.5772		-0.1602		C.ar		1		UNL1		0.7860
26		O		4.1843		-0.0841		-0.1969		O.2		1		UNL1		-0.5233
27		H		3.2655		-4.1815		-0.2999		H		1		UNL1		0.1572
28		H		3.4394		-2.4198		-0.4679		H		1		UNL1		0.1967
29		H		2.5059		-3.3517		-1.6485		H		1		UNL1		0.1518
30		H		-0.4403		-4.0461		0.6166		H		1		UNL1		0.1581
31		H		0.1287		-4.2033		-1.0575		H		1		UNL1		0.1552
32		H		0.8692		-5.1756		0.2091		H		1		UNL1		0.1560
33		H		0.2793		-2.1149		1.6159		H		1		UNL1		0.1359
34		H		2.0023		-0.6775		2.4913		H		1		UNL1		0.1971
35		H		3.2127		-1.2742		1.3502		H		1		UNL1		0.2094
36		H		-2.2556		0.9869		3.0521		H		1		UNL1		0.1701
37		H		-4.6905		0.8050		2.5608		H		1		UNL1		0.1448
38		H		-5.4342		0.1022		0.3009		H		1		UNL1		0.1435
39		H		-4.9432		-0.6548		-1.9362		H		1		UNL1		0.1379
40		H		-3.3202		-1.3027		-3.6935		H		1		UNL1		0.1393
41		H		-0.8766		-1.2265		-3.2017		H		1		UNL1		0.1404
42		H		-0.0624		-0.4978		-1.0295		H		1		UNL1		0.1610
43		H		-0.0598		4.1362		-0.1895		H		1		UNL1		0.1865
44		H		-0.9987		2.9451		-1.0770		H		1		UNL1		0.1764
45		H		-1.0745		2.9745		0.6928		H		1		UNL1		0.1570
46		H		3.8175		1.9897		-1.4621		H		1		UNL1		0.3541
@<TRIPOS>BOND
1		40		16		1
2		41		17		1
3		16		17		ar
4		16		15		ar
5		17		18		ar
6		39		15		1
7		15		14		ar
8		23		22		2
9		29		1		1
10		46		24		1
11		18		42		1
12		18		19		ar
13		44		21		1
14		31		3		1
15		22		24		ar
16		22		20		ar
17		24		25		ar
18		1		28		1
19		1		27		1
20		1		2		1
21		14		19		ar
22		14		13		ar
23		26		25		2
24		19		10		ar
25		43		21		1
26		21		20		1
27		21		45		1
28		25		6		ar
29		20		7		ar
30		3		32		1
31		3		2		1
32		3		30		1
33		2		4		2
34		38		13		1
35		13		12		ar
36		7		6		ar
37		7		8		1
38		6		5		1
39		4		5		1
40		4		33		1
41		10		8		1
42		10		11		ar
43		35		5		1
44		5		34		1
45		8		9		2
46		12		11		ar
47		12		37		1
48		11		36		1

