@<TRIPOS>MOLECULE
LY-2014-EJPS-334-2-1aa
 48 51 0 0 0
SMALL
MULLIKEN_CHARGES
****
Gaussian 16 #p B3LYP/6-31G* opt
@<TRIPOS>ATOM
1		C		1.0547		1.5415		2.7106		C.3		1		UNL1		-0.5437
2		C		-0.0753		1.2286		1.7615		C.ar		1		UNL1		0.1124
3		C		-1.3343		0.8935		2.2633		C.ar		1		UNL1		0.0203
4		N		-2.3927		0.5561		1.5209		N.ar		1		UNL1		-0.4718
5		C		-2.1804		0.5529		0.2013		C.ar		1		UNL1		0.6911
6		N		-3.1908		0.2078		-0.6744		N.pl3		1		UNL1		-0.7665
7		C		-4.5142		-0.1835		-0.4760		C.ar		1		UNL1		0.3834
8		C		-5.2724		-0.4635		-1.6318		C.ar		1		UNL1		-0.2061
9		C		-6.5958		-0.8596		-1.5377		C.ar		1		UNL1		-0.1404
10		C		-7.2069		-0.9891		-0.2777		C.ar		1		UNL1		0.1307
11		C		-8.5741		-1.3974		-0.1725		C.1		1		UNL1		0.2269
12		N		-9.6868		-1.7293		-0.0887		N.1		1		UNL1		-0.4852
13		C		-6.4521		-0.7105		0.8737		C.ar		1		UNL1		-0.1532
14		C		-5.1239		-0.3126		0.7862		C.ar		1		UNL1		-0.1611
15		N		-1.0273		0.8778		-0.4141		N.ar		1		UNL1		-0.5545
16		C		0.0161		1.2140		0.3503		C.ar		1		UNL1		0.2546
17		C		1.2767		1.5643		-0.4485		C.3		1		UNL1		-0.0866
18		N		1.7950		2.8922		-0.0718		N.3		1		UNL1		-0.5912
19		C		2.4243		3.6000		-1.1664		C.3		1		UNL1		0.0248
20		C		3.9218		3.5417		-1.3384		C.3		1		UNL1		-0.2996
21		C		3.2656		4.8021		-0.8292		C.3		1		UNL1		-0.3272
22		C		2.3192		0.4486		-0.3300		C.ar		1		UNL1		0.1642
23		C		2.1266		-0.7342		-1.0563		C.ar		1		UNL1		-0.1780
24		C		3.0288		-1.7928		-0.9665		C.ar		1		UNL1		-0.1480
25		C		4.1432		-1.6632		-0.1394		C.ar		1		UNL1		0.0837
26		BR		5.3944		-3.1050		-0.0120		Br		1		UNL1		-0.1316
27		C		4.3614		-0.4981		0.5913		C.ar		1		UNL1		-0.1534
28		C		3.4450		0.5507		0.4929		C.ar		1		UNL1		-0.1831
29		H		1.6285		2.4151		2.3931		H		1		UNL1		0.1825
30		H		1.7582		0.7030		2.7782		H		1		UNL1		0.1795
31		H		0.6627		1.7265		3.7163		H		1		UNL1		0.1557
32		H		-1.4994		0.8962		3.3406		H		1		UNL1		0.1490
33		H		-2.8814		0.2588		-1.6366		H		1		UNL1		0.3442
34		H		-4.8107		-0.3669		-2.6119		H		1		UNL1		0.1355
35		H		-7.1652		-1.0712		-2.4369		H		1		UNL1		0.1576
36		H		-6.9157		-0.8081		1.8504		H		1		UNL1		0.1580
37		H		-4.5505		-0.0998		1.6767		H		1		UNL1		0.1888
38		H		0.9338		1.5707		-1.4939		H		1		UNL1		0.1507
39		H		1.0165		3.4578		0.2628		H		1		UNL1		0.3113
40		H		1.8427		3.6586		-2.0927		H		1		UNL1		0.1338
41		H		4.3143		3.5313		-2.3513		H		1		UNL1		0.1545
42		H		4.4870		2.9473		-0.6296		H		1		UNL1		0.1620
43		H		3.2098		5.6687		-1.4818		H		1		UNL1		0.1554
44		H		3.3880		5.0347		0.2247		H		1		UNL1		0.1589
45		H		1.2561		-0.8311		-1.7007		H		1		UNL1		0.1452
46		H		2.8726		-2.7036		-1.5342		H		1		UNL1		0.1555
47		H		5.2357		-0.4093		1.2273		H		1		UNL1		0.1542
48		H		3.6087		1.4650		1.0523		H		1		UNL1		0.1568
@<TRIPOS>BOND
1		34		8		1
2		35		9		1
3		41		20		1
4		40		19		1
5		45		23		1
6		33		6		1
7		8		9		ar
8		8		7		ar
9		9		10		ar
10		46		24		1
11		38		17		1
12		43		21		1
13		20		19		1
14		20		21		1
15		20		42		1
16		19		21		1
17		19		18		1
18		23		24		ar
19		23		22		ar
20		24		25		ar
21		21		44		1
22		6		7		1
23		6		5		1
24		7		14		ar
25		17		22		1
26		17		18		1
27		17		16		1
28		15		5		ar
29		15		16		ar
30		22		28		ar
31		10		11		1
32		10		13		ar
33		11		12		3
34		25		26		1
35		25		27		ar
36		18		39		1
37		5		4		ar
38		16		2		ar
39		28		27		ar
40		28		48		1
41		27		47		1
42		14		13		ar
43		14		37		1
44		13		36		1
45		4		3		ar
46		2		3		ar
47		2		1		1
48		3		32		1
49		29		1		1
50		1		30		1
51		1		31		1

