@<TRIPOS>MOLECULE
LY-2014-EJPS-334-2-1ac
 52 55 0 0 0
SMALL
MULLIKEN_CHARGES
****
Gaussian 16 #p B3LYP/6-31G* opt
@<TRIPOS>ATOM
1		C		-5.9488		-3.8443		0.2613		C.3		1		UNL1		-0.2163
2		O		-4.7756		-3.5321		-0.4732		O.3		1		UNL1		-0.5047
3		C		-4.1789		-2.3253		-0.2542		C.ar		1		UNL1		0.3766
4		C		-4.6378		-1.3575		0.6441		C.ar		1		UNL1		-0.1959
5		C		-3.9360		-0.1537		0.7752		C.ar		1		UNL1		-0.2070
6		C		-2.7859		0.1148		0.0307		C.ar		1		UNL1		0.1723
7		C		-2.0287		1.4480		0.1901		C.3		1		UNL1		-0.1293
8		N		-1.8117		2.2520		-1.0030		N.3		1		UNL1		-0.5695
9		C		-2.8990		2.8465		-1.7400		C.3		1		UNL1		0.0449
10		C		-4.3147		2.9196		-1.2364		C.3		1		UNL1		-0.3259
11		C		-4.0031		2.1020		-2.4719		C.3		1		UNL1		-0.3253
12		C		-0.6630		1.1582		0.8158		C.ar		1		UNL1		0.3115
13		N		0.3232		0.8840		-0.0397		N.ar		1		UNL1		-0.5707
14		C		1.5344		0.5953		0.4713		C.ar		1		UNL1		0.6959
15		N		2.4895		0.3266		-0.4912		N.pl3		1		UNL1		-0.7679
16		C		3.8382		-0.0138		-0.4074		C.ar		1		UNL1		0.3843
17		C		4.5466		-0.1655		0.7998		C.ar		1		UNL1		-0.1605
18		C		5.8922		-0.5094		0.7723		C.ar		1		UNL1		-0.1535
19		C		6.5688		-0.7110		-0.4422		C.ar		1		UNL1		0.1302
20		C		7.9548		-1.0652		-0.4553		C.1		1		UNL1		0.2262
21		N		9.0827		-1.3538		-0.4675		N.1		1		UNL1		-0.4867
22		C		5.8596		-0.5586		-1.6471		C.ar		1		UNL1		-0.1405
23		C		4.5183		-0.2161		-1.6266		C.ar		1		UNL1		-0.2063
24		N		1.8497		0.5580		1.7692		N.ar		1		UNL1		-0.4778
25		C		0.8438		0.8316		2.6069		C.ar		1		UNL1		0.0191
26		C		-0.4562		1.1398		2.2118		C.ar		1		UNL1		0.1180
27		C		-1.5309		1.4265		3.2281		C.3		1		UNL1		-0.5504
28		C		-2.3377		-0.8748		-0.8616		C.ar		1		UNL1		-0.1831
29		C		-3.0199		-2.0736		-1.0073		C.ar		1		UNL1		-0.1701
30		H		-6.7587		-3.1335		0.0496		H		1		UNL1		0.1534
31		H		-6.2499		-4.8412		-0.0652		H		1		UNL1		0.1728
32		H		-5.7561		-3.8596		1.3423		H		1		UNL1		0.1528
33		H		-5.5303		-1.5211		1.2371		H		1		UNL1		0.1332
34		H		-4.3104		0.5926		1.4734		H		1		UNL1		0.1275
35		H		-2.5998		2.0600		0.8954		H		1		UNL1		0.1447
36		H		-1.1349		1.8035		-1.6121		H		1		UNL1		0.3155
37		H		-2.5617		3.7498		-2.2485		H		1		UNL1		0.1394
38		H		-4.8435		3.8631		-1.3432		H		1		UNL1		0.1517
39		H		-4.5844		2.3671		-0.3425		H		1		UNL1		0.1535
40		H		-4.0468		1.0223		-2.3701		H		1		UNL1		0.1655
41		H		-4.3171		2.4798		-3.4419		H		1		UNL1		0.1439
42		H		2.1089		0.4036		-1.4254		H		1		UNL1		0.3411
43		H		4.0335		-0.0112		1.7379		H		1		UNL1		0.1888
44		H		6.4317		-0.6246		1.7072		H		1		UNL1		0.1568
45		H		6.3675		-0.7105		-2.5941		H		1		UNL1		0.1564
46		H		3.9808		-0.1011		-2.5652		H		1		UNL1		0.1343
47		H		1.0955		0.8051		3.6671		H		1		UNL1		0.1453
48		H		-2.3586		0.7111		3.1562		H		1		UNL1		0.1739
49		H		-1.1241		1.3618		4.2425		H		1		UNL1		0.1621
50		H		-1.9551		2.4310		3.1071		H		1		UNL1		0.1715
51		H		-1.4368		-0.7015		-1.4437		H		1		UNL1		0.1372
52		H		-2.6756		-2.8386		-1.6966		H		1		UNL1		0.1415
@<TRIPOS>BOND
1		41		11		1
2		45		22		1
3		46		23		1
4		11		40		1
5		11		9		1
6		11		10		1
7		37		9		1
8		9		10		1
9		9		8		1
10		52		29		1
11		22		23		ar
12		22		19		ar
13		23		16		ar
14		36		8		1
15		51		28		1
16		42		15		1
17		38		10		1
18		10		39		1
19		29		28		ar
20		29		3		ar
21		8		7		1
22		28		6		ar
23		15		16		1
24		15		14		1
25		2		3		1
26		2		1		1
27		21		20		3
28		20		19		1
29		19		18		ar
30		16		17		ar
31		3		4		ar
32		31		1		1
33		13		14		ar
34		13		12		ar
35		6		7		1
36		6		5		ar
37		30		1		1
38		7		12		1
39		7		35		1
40		1		32		1
41		14		24		ar
42		4		5		ar
43		4		33		1
44		18		17		ar
45		18		44		1
46		5		34		1
47		17		43		1
48		12		26		ar
49		24		25		ar
50		26		25		ar
51		26		27		1
52		25		47		1
53		50		27		1
54		48		27		1
55		27		49		1

