@<TRIPOS>MOLECULE
LY-2014-EJPS-334-2-1s
 48 51 0 0 0
SMALL
MULLIKEN_CHARGES
****
Gaussian 16 #p B3LYP/6-31G* opt
@<TRIPOS>ATOM
1		C		-0.4245		-3.4788		-1.0018		C.3		1		UNL1		-0.5150
2		C		-0.2938		-2.0108		-0.6975		C.ar		1		UNL1		0.3424
3		C		0.9442		-1.3711		-0.6569		C.ar		1		UNL1		-0.2369
4		C		0.9558		-0.0023		-0.3630		C.ar		1		UNL1		0.3411
5		C		2.2492		0.8338		-0.3596		C.3		1		UNL1		-0.1016
6		N		2.0778		1.9676		0.5395		N.3		1		UNL1		-0.5866
7		C		2.8178		3.1870		0.2831		C.3		1		UNL1		0.0318
8		C		4.0697		3.2508		-0.5438		C.3		1		UNL1		-0.3201
9		C		2.8134		3.9375		-1.0372		C.3		1		UNL1		-0.3271
10		C		3.4759		-0.0026		-0.0004		C.ar		1		UNL1		0.1627
11		C		3.8146		-0.2251		1.3402		C.ar		1		UNL1		-0.1599
12		C		4.9109		-1.0154		1.6797		C.ar		1		UNL1		-0.1987
13		C		5.6702		-1.5818		0.6607		C.ar		1		UNL1		0.3795
14		F		6.7358		-2.3453		0.9838		F		1		UNL1		-0.2975
15		C		5.3690		-1.3771		-0.6797		C.ar		1		UNL1		-0.1985
16		C		4.2669		-0.5812		-0.9998		C.ar		1		UNL1		-0.2001
17		N		-0.1772		0.6601		-0.1291		N.ar		1		UNL1		-0.5847
18		C		-1.3248		-0.0480		-0.1853		C.ar		1		UNL1		0.6995
19		N		-2.4462		0.7136		0.0753		N.pl3		1		UNL1		-0.7708
20		C		-3.8055		0.4035		0.1238		C.ar		1		UNL1		0.3830
21		C		-4.3379		-0.8785		-0.1076		C.ar		1		UNL1		-0.1598
22		C		-5.7107		-1.0794		-0.0350		C.ar		1		UNL1		-0.1535
23		C		-6.5867		-0.0238		0.2667		C.ar		1		UNL1		0.1312
24		C		-7.9985		-0.2454		0.3377		C.1		1		UNL1		0.2272
25		N		-9.1473		-0.4245		0.3956		N.1		1		UNL1		-0.4847
26		C		-6.0527		1.2564		0.4980		C.ar		1		UNL1		-0.1404
27		C		-4.6853		1.4631		0.4270		C.ar		1		UNL1		-0.2060
28		N		-1.4404		-1.3487		-0.4607		N.ar		1		UNL1		-0.5332
29		H		-0.9042		-3.9962		-0.1632		H		1		UNL1		0.1814
30		H		0.5474		-3.9416		-1.1914		H		1		UNL1		0.1622
31		H		-1.0651		-3.6269		-1.8784		H		1		UNL1		0.1796
32		H		1.8612		-1.9172		-0.8355		H		1		UNL1		0.1552
33		H		2.3672		1.1464		-1.4171		H		1		UNL1		0.1445
34		H		1.0828		2.1786		0.5832		H		1		UNL1		0.3262
35		H		2.8223		3.8193		1.1693		H		1		UNL1		0.1423
36		H		4.8918		3.8582		-0.1746		H		1		UNL1		0.1554
37		H		4.3937		2.3588		-1.0705		H		1		UNL1		0.1609
38		H		2.7607		5.0230		-1.0172		H		1		UNL1		0.1495
39		H		2.2993		3.4853		-1.8823		H		1		UNL1		0.1495
40		H		3.2165		0.2474		2.1125		H		1		UNL1		0.1582
41		H		5.1867		-1.1935		2.7142		H		1		UNL1		0.1488
42		H		5.9927		-1.8251		-1.4464		H		1		UNL1		0.1476
43		H		4.0266		-0.4056		-2.0466		H		1		UNL1		0.1339
44		H		-2.2059		1.6782		0.2646		H		1		UNL1		0.3434
45		H		-3.6698		-1.6949		-0.3401		H		1		UNL1		0.1860
46		H		-6.1144		-2.0709		-0.2146		H		1		UNL1		0.1575
47		H		-6.7160		2.0827		0.7324		H		1		UNL1		0.1581
48		H		-4.2843		2.4578		0.6079		H		1		UNL1		0.1363
@<TRIPOS>BOND
1		43		16		1
2		39		9		1
3		31		1		1
4		42		15		1
5		33		5		1
6		30		1		1
7		37		8		1
8		9		38		1
9		9		8		1
10		9		7		1
11		1		2		1
12		1		29		1
13		16		15		ar
14		16		10		ar
15		32		3		1
16		2		3		ar
17		2		28		ar
18		15		13		ar
19		3		4		ar
20		8		36		1
21		8		7		1
22		28		18		ar
23		4		5		1
24		4		17		ar
25		5		10		1
26		5		6		1
27		45		21		1
28		46		22		1
29		18		17		ar
30		18		19		1
31		21		22		ar
32		21		20		ar
33		22		23		ar
34		10		11		ar
35		19		20		1
36		19		44		1
37		20		27		ar
38		23		24		1
39		23		26		ar
40		7		6		1
41		7		35		1
42		24		25		3
43		27		26		ar
44		27		48		1
45		26		47		1
46		6		34		1
47		13		14		1
48		13		12		ar
49		11		12		ar
50		11		40		1
51		12		41		1

