@<TRIPOS>MOLECULE
LY-2014-EJPS-334-2-1i
 45 48 0 0 0
SMALL
MULLIKEN_CHARGES
****
Gaussian 16 #p B3LYP/6-31G* opt
@<TRIPOS>ATOM
1		N		-9.1488		-0.9146		0.0723		N.1		1		UNL1		-0.4850
2		C		-8.0008		-0.7469		-0.0244		C.1		1		UNL1		0.2272
3		C		-6.5899		-0.5416		-0.1449		C.ar		1		UNL1		0.1311
4		C		-5.8422		-1.2637		-1.0921		C.ar		1		UNL1		-0.1403
5		C		-4.4772		-1.0589		-1.2035		C.ar		1		UNL1		-0.2055
6		C		-3.8126		-0.1298		-0.3768		C.ar		1		UNL1		0.3831
7		N		-2.4373		0.0054		-0.5680		N.pl3		1		UNL1		-0.7651
8		C		-1.4826		0.7908		0.0443		C.ar		1		UNL1		0.6913
9		N		-1.8290		1.6282		1.0328		N.ar		1		UNL1		-0.4762
10		C		-0.8249		2.3382		1.5562		C.ar		1		UNL1		0.0713
11		C		0.4929		2.2346		1.1257		C.ar		1		UNL1		-0.2076
12		C		0.7413		1.3297		0.0875		C.ar		1		UNL1		0.3476
13		C		2.1312		1.1050		-0.5369		C.3		1		UNL1		-0.1419
14		N		3.1794		2.0542		-0.1836		N.3		1		UNL1		-0.5746
15		C		3.0455		3.3737		-0.7458		C.3		1		UNL1		0.0233
16		C		4.3119		4.1674		-0.9306		C.3		1		UNL1		-0.3204
17		C		3.6023		3.5939		-2.1328		C.3		1		UNL1		-0.3056
18		C		2.5923		-0.3442		-0.3614		C.ar		1		UNL1		0.2279
19		C		2.6571		-1.1708		-1.4916		C.ar		1		UNL1		-0.1834
20		C		3.0725		-2.4983		-1.4307		C.ar		1		UNL1		-0.1243
21		C		3.4382		-3.0288		-0.1965		C.ar		1		UNL1		-0.0640
22		CL		3.9689		-4.6975		-0.0830		Cl		1		UNL1		-0.0065
23		C		3.3897		-2.2512		0.9571		C.ar		1		UNL1		-0.1253
24		C		2.9667		-0.9260		0.8582		C.ar		1		UNL1		-0.1307
25		CL		2.9244		-0.0075		2.3662		Cl		1		UNL1		-0.0163
26		N		-0.2446		0.6136		-0.4575		N.ar		1		UNL1		-0.5492
27		C		-4.5589		0.5934		0.5723		C.ar		1		UNL1		-0.1600
28		C		-5.9280		0.3834		0.6792		C.ar		1		UNL1		-0.1532
29		H		-6.3384		-1.9826		-1.7359		H		1		UNL1		0.1578
30		H		-3.9095		-1.6235		-1.9395		H		1		UNL1		0.1362
31		H		-2.0292		-0.5793		-1.2864		H		1		UNL1		0.3457
32		H		-1.0964		3.0212		2.3595		H		1		UNL1		0.1557
33		H		1.2815		2.8222		1.5780		H		1		UNL1		0.1427
34		H		1.9685		1.2339		-1.6125		H		1		UNL1		0.1735
35		H		3.3534		2.0809		0.8165		H		1		UNL1		0.3207
36		H		2.1475		3.9479		-0.4982		H		1		UNL1		0.1314
37		H		5.2374		3.6888		-0.6249		H		1		UNL1		0.1646
38		H		4.2741		5.2402		-0.7637		H		1		UNL1		0.1533
39		H		3.0736		4.2703		-2.7985		H		1		UNL1		0.1528
40		H		4.0629		2.7382		-2.6176		H		1		UNL1		0.1605
41		H		2.3702		-0.7559		-2.4535		H		1		UNL1		0.1490
42		H		3.1131		-3.1100		-2.3251		H		1		UNL1		0.1622
43		H		3.6741		-2.6645		1.9172		H		1		UNL1		0.1794
44		H		-4.0571		1.3062		1.2104		H		1		UNL1		0.1889
45		H		-6.4974		0.9447		1.4134		H		1		UNL1		0.1580
@<TRIPOS>BOND
1		39		17		1
2		40		17		1
3		41		19		1
4		42		20		1
5		17		16		1
6		17		15		1
7		30		5		1
8		29		4		1
9		34		13		1
10		19		20		ar
11		19		18		ar
12		20		21		ar
13		31		7		1
14		5		4		ar
15		5		6		ar
16		4		3		ar
17		16		38		1
18		16		15		1
19		16		37		1
20		15		36		1
21		15		14		1
22		7		6		1
23		7		8		1
24		13		18		1
25		13		14		1
26		13		12		1
27		26		8		ar
28		26		12		ar
29		6		27		ar
30		18		24		ar
31		21		22		1
32		21		23		ar
33		14		35		1
34		3		2		1
35		3		28		ar
36		2		1		3
37		8		9		ar
38		12		11		ar
39		27		28		ar
40		27		44		1
41		28		45		1
42		24		23		ar
43		24		25		1
44		23		43		1
45		9		10		ar
46		11		10		ar
47		11		33		1
48		10		32		1

