@<TRIPOS>MOLECULE
LY-2014-EJPS-334-2-1z
 48 51 0 0 0
SMALL
MULLIKEN_CHARGES
****
Gaussian 16 #p B3LYP/6-31G* opt
@<TRIPOS>ATOM
1		C		-1.5921		-0.8721		3.3692		C.3		1		UNL1		-0.5491
2		C		-0.5071		-0.7316		2.3332		C.ar		1		UNL1		0.1186
3		C		0.7971		-0.3961		2.6900		C.ar		1		UNL1		0.0198
4		N		1.8079		-0.2499		1.8265		N.ar		1		UNL1		-0.4760
5		C		1.4949		-0.4451		0.5424		C.ar		1		UNL1		0.6958
6		N		2.4553		-0.3195		-0.4420		N.pl3		1		UNL1		-0.7679
7		C		3.8121		0.0002		-0.3965		C.ar		1		UNL1		0.3834
8		C		4.5201		0.2956		0.7836		C.ar		1		UNL1		-0.1603
9		C		5.8729		0.6048		0.7177		C.ar		1		UNL1		-0.1532
10		C		6.5561		0.6294		-0.5093		C.ar		1		UNL1		0.1309
11		C		7.9496		0.9495		-0.5620		C.1		1		UNL1		0.2271
12		N		9.0835		1.2099		-0.6067		N.1		1		UNL1		-0.4850
13		C		5.8469		0.3334		-1.6870		C.ar		1		UNL1		-0.1402
14		C		4.4984		0.0247		-1.6282		C.ar		1		UNL1		-0.2063
15		N		0.2769		-0.7717		0.0672		N.ar		1		UNL1		-0.5750
16		C		-0.7117		-0.9210		0.9499		C.ar		1		UNL1		0.3045
17		C		-2.0804		-1.2662		0.3733		C.3		1		UNL1		-0.1222
18		N		-1.9118		-2.1388		-0.7884		N.3		1		UNL1		-0.5593
19		C		-3.1258		-2.5346		-1.4496		C.3		1		UNL1		0.0273
20		C		-3.8428		-3.7496		-0.9086		C.3		1		UNL1		-0.3091
21		C		-3.0915		-3.8306		-2.2158		C.3		1		UNL1		-0.3205
22		C		-2.8848		0.0210		0.1203		C.ar		1		UNL1		0.1661
23		C		-4.1621		0.1775		0.6700		C.ar		1		UNL1		-0.1901
24		C		-4.9254		1.3200		0.4214		C.ar		1		UNL1		-0.1285
25		C		-4.3990		2.3188		-0.3936		C.ar		1		UNL1		-0.0666
26		CL		-5.3469		3.7644		-0.7170		Cl		1		UNL1		-0.0211
27		C		-3.1297		2.1892		-0.9595		C.ar		1		UNL1		-0.1281
28		C		-2.3828		1.0426		-0.6988		C.ar		1		UNL1		-0.1769
29		H		-2.4285		-0.1899		3.1775		H		1		UNL1		0.1759
30		H		-2.0014		-1.8898		3.3998		H		1		UNL1		0.1711
31		H		-1.2007		-0.6459		4.3661		H		1		UNL1		0.1647
32		H		1.0482		-0.2364		3.7385		H		1		UNL1		0.1482
33		H		2.0768		-0.5131		-1.3601		H		1		UNL1		0.3419
34		H		4.0022		0.2775		1.7315		H		1		UNL1		0.1891
35		H		6.4126		0.8316		1.6318		H		1		UNL1		0.1581
36		H		6.3602		0.3477		-2.6431		H		1		UNL1		0.1577
37		H		3.9609		-0.2027		-2.5460		H		1		UNL1		0.1351
38		H		-2.6333		-1.8425		1.1241		H		1		UNL1		0.1462
39		H		-1.2422		-1.7247		-1.4320		H		1		UNL1		0.3151
40		H		-3.7649		-1.7467		-1.8583		H		1		UNL1		0.1376
41		H		-4.9290		-3.7602		-0.9300		H		1		UNL1		0.1492
42		H		-3.3957		-4.2428		-0.0504		H		1		UNL1		0.1562
43		H		-3.6591		-3.8949		-3.1399		H		1		UNL1		0.1507
44		H		-2.1520		-4.3749		-2.2164		H		1		UNL1		0.1605
45		H		-4.5763		-0.6080		1.2980		H		1		UNL1		0.1396
46		H		-5.9153		1.4315		0.8511		H		1		UNL1		0.1572
47		H		-2.7338		2.9777		-1.5909		H		1		UNL1		0.1578
48		H		-1.3915		0.9441		-1.1326		H		1		UNL1		0.1497
@<TRIPOS>BOND
1		43		21		1
2		36		13		1
3		37		14		1
4		44		21		1
5		21		19		1
6		21		20		1
7		40		19		1
8		13		14		ar
9		13		10		ar
10		14		7		ar
11		47		27		1
12		19		20		1
13		19		18		1
14		39		18		1
15		33		6		1
16		48		28		1
17		27		28		ar
18		27		25		ar
19		41		20		1
20		20		42		1
21		18		17		1
22		26		25		1
23		28		22		ar
24		12		11		3
25		11		10		1
26		10		9		ar
27		6		7		1
28		6		5		1
29		7		8		ar
30		25		24		ar
31		15		5		ar
32		15		16		ar
33		22		17		1
34		22		23		ar
35		17		16		1
36		17		38		1
37		24		23		ar
38		24		46		1
39		5		4		ar
40		23		45		1
41		9		8		ar
42		9		35		1
43		8		34		1
44		16		2		ar
45		4		3		ar
46		2		3		ar
47		2		1		1
48		3		32		1
49		29		1		1
50		1		30		1
51		1		31		1

