@<TRIPOS>MOLECULE
LY-2014-EJPS-334-2-1a
 45 48 0 0 0
SMALL
MULLIKEN_CHARGES
****
Gaussian 16 #p B3LYP/6-31G* opt
@<TRIPOS>ATOM
1		N		8.6526		-0.2119		0.0592		N.1		1		UNL1		-0.4866
2		C		7.4929		-0.1720		-0.0365		C.1		1		UNL1		0.2263
3		C		6.0681		-0.1235		-0.1561		C.ar		1		UNL1		0.1303
4		C		5.2718		0.2863		0.9262		C.ar		1		UNL1		-0.1535
5		C		3.8875		0.3384		0.8238		C.ar		1		UNL1		-0.1603
6		C		3.2609		-0.0245		-0.3835		C.ar		1		UNL1		0.3838
7		N		1.8829		-0.0079		-0.5918		N.pl3		1		UNL1		-0.7657
8		C		0.8194		0.3305		0.2217		C.ar		1		UNL1		0.6913
9		N		1.0337		0.7376		1.4794		N.ar		1		UNL1		-0.4788
10		C		-0.0685		1.0416		2.1770		C.ar		1		UNL1		0.0694
11		C		-1.3526		0.9478		1.6581		C.ar		1		UNL1		-0.1952
12		C		-1.4558		0.5102		0.3306		C.ar		1		UNL1		0.3397
13		C		-2.8030		0.3105		-0.3649		C.3		1		UNL1		-0.0791
14		N		-3.8046		1.2433		0.1605		N.3		1		UNL1		-0.5849
15		C		-3.6321		2.6129		-0.2693		C.3		1		UNL1		0.0395
16		C		-3.9075		3.0615		-1.6926		C.3		1		UNL1		-0.3191
17		C		-4.8376		3.4551		-0.5626		C.3		1		UNL1		-0.3337
18		C		-3.2635		-1.1338		-0.1794		C.ar		1		UNL1		0.1140
19		C		-2.9417		-2.0966		-1.1436		C.ar		1		UNL1		-0.1686
20		C		-3.3382		-3.4243		-0.9821		C.ar		1		UNL1		-0.1317
21		C		-4.0653		-3.8061		0.1471		C.ar		1		UNL1		-0.1258
22		C		-4.3888		-2.8527		1.1138		C.ar		1		UNL1		-0.1303
23		C		-3.9869		-1.5255		0.9551		C.ar		1		UNL1		-0.1764
24		N		-0.3761		0.2071		-0.3906		N.ar		1		UNL1		-0.5508
25		C		4.0610		-0.4362		-1.4698		C.ar		1		UNL1		-0.2057
26		C		5.4404		-0.4859		-1.3613		C.ar		1		UNL1		-0.1407
27		H		5.7479		0.5675		1.8604		H		1		UNL1		0.1569
28		H		3.2814		0.6543		1.6605		H		1		UNL1		0.1890
29		H		1.5680		-0.2964		-1.5094		H		1		UNL1		0.3444
30		H		0.0980		1.3759		3.1998		H		1		UNL1		0.1526
31		H		-2.2343		1.2024		2.2323		H		1		UNL1		0.1642
32		H		-2.6093		0.4695		-1.4378		H		1		UNL1		0.1412
33		H		-4.7314		0.9090		-0.0930		H		1		UNL1		0.3048
34		H		-2.8067		3.1083		0.2381		H		1		UNL1		0.1517
35		H		-4.2675		2.3157		-2.3975		H		1		UNL1		0.1513
36		H		-3.2722		3.8244		-2.1351		H		1		UNL1		0.1552
37		H		-4.8455		4.4865		-0.2216		H		1		UNL1		0.1598
38		H		-5.8133		2.9748		-0.5238		H		1		UNL1		0.1523
39		H		-2.3741		-1.8018		-2.0223		H		1		UNL1		0.1339
40		H		-3.0837		-4.1592		-1.7412		H		1		UNL1		0.1327
41		H		-4.3780		-4.8393		0.2720		H		1		UNL1		0.1326
42		H		-4.9532		-3.1417		1.9966		H		1		UNL1		0.1329
43		H		-4.2373		-0.7858		1.7096		H		1		UNL1		0.1457
44		H		3.5870		-0.7189		-2.4070		H		1		UNL1		0.1349
45		H		6.0411		-0.8050		-2.2069		H		1		UNL1		0.1563
@<TRIPOS>BOND
1		44		25		1
2		35		16		1
3		45		26		1
4		36		16		1
5		39		19		1
6		40		20		1
7		16		17		1
8		16		15		1
9		29		7		1
10		25		26		ar
11		25		6		ar
12		32		13		1
13		26		3		ar
14		19		20		ar
15		19		18		ar
16		20		21		ar
17		7		6		1
18		7		8		1
19		17		38		1
20		17		15		1
21		17		37		1
22		24		8		ar
23		24		12		ar
24		6		5		ar
25		13		18		1
26		13		14		1
27		13		12		1
28		15		14		1
29		15		34		1
30		18		23		ar
31		3		2		1
32		3		4		ar
33		33		14		1
34		2		1		3
35		21		41		1
36		21		22		ar
37		8		9		ar
38		12		11		ar
39		5		4		ar
40		5		28		1
41		4		27		1
42		23		22		ar
43		23		43		1
44		22		42		1
45		9		10		ar
46		11		10		ar
47		11		31		1
48		10		30		1

