@<TRIPOS>MOLECULE
LY-2014-EJPS-334-2-1c
 45 48 0 0 0
SMALL
MULLIKEN_CHARGES
****
Gaussian 16 #p B3LYP/6-31G* opt
@<TRIPOS>ATOM
1		N		-8.6181		0.6971		0.5741		N.1		1		UNL1		-0.4859
2		C		-7.4669		0.6043		0.4271		C.1		1		UNL1		0.2267
3		C		-6.0521		0.4919		0.2466		C.ar		1		UNL1		0.1306
4		C		-5.2415		1.6410		0.2283		C.ar		1		UNL1		-0.1407
5		C		-3.8728		1.5245		0.0535		C.ar		1		UNL1		-0.2059
6		C		-3.2666		0.2615		-0.1088		C.ar		1		UNL1		0.3829
7		N		-1.8827		0.2482		-0.2770		N.pl3		1		UNL1		-0.7656
8		C		-0.9757		-0.7757		-0.4637		C.ar		1		UNL1		0.6872
9		N		-1.3875		-2.0475		-0.5096		N.ar		1		UNL1		-0.4769
10		C		-0.4170		-2.9529		-0.6979		C.ar		1		UNL1		0.0666
11		C		0.9233		-2.6218		-0.8302		C.ar		1		UNL1		-0.1968
12		C		1.2418		-1.2556		-0.7604		C.ar		1		UNL1		0.3445
13		C		2.6760		-0.7715		-1.0032		C.3		1		UNL1		-0.1531
14		N		3.6574		-1.7781		-0.5362		N.3		1		UNL1		-0.5645
15		C		4.0359		-1.7485		0.8582		C.3		1		UNL1		0.0170
16		C		4.6290		-3.0102		1.4290		C.3		1		UNL1		-0.3226
17		C		3.2502		-2.5680		1.8551		C.3		1		UNL1		-0.3107
18		C		2.9556		0.6627		-0.5648		C.ar		1		UNL1		0.1990
19		C		2.6358		1.1369		0.7169		C.ar		1		UNL1		-0.1603
20		C		2.9742		2.4296		1.1124		C.ar		1		UNL1		-0.2086
21		C		3.6373		3.2552		0.2106		C.ar		1		UNL1		0.3790
22		F		3.9633		4.5095		0.5885		F		1		UNL1		-0.2973
23		C		3.9685		2.8260		-1.0675		C.ar		1		UNL1		-0.1959
24		C		3.6224		1.5267		-1.4421		C.ar		1		UNL1		-0.2027
25		N		0.2957		-0.3362		-0.5851		N.ar		1		UNL1		-0.5500
26		C		-4.0761		-0.8900		-0.0910		C.ar		1		UNL1		-0.1607
27		C		-5.4486		-0.7662		0.0849		C.ar		1		UNL1		-0.1534
28		H		-5.6923		2.6204		0.3517		H		1		UNL1		0.1572
29		H		-3.2562		2.4203		0.0408		H		1		UNL1		0.1371
30		H		-1.4235		1.1505		-0.2697		H		1		UNL1		0.3480
31		H		-0.7430		-3.9907		-0.7435		H		1		UNL1		0.1530
32		H		1.6950		-3.3648		-0.9812		H		1		UNL1		0.1609
33		H		2.7787		-0.7850		-2.0980		H		1		UNL1		0.1651
34		H		4.4994		-1.6865		-1.1007		H		1		UNL1		0.3059
35		H		4.4493		-0.8127		1.2400		H		1		UNL1		0.1467
36		H		4.6915		-3.8671		0.7645		H		1		UNL1		0.1583
37		H		5.4511		-2.9185		2.1332		H		1		UNL1		0.1545
38		H		2.4051		-3.1383		1.4864		H		1		UNL1		0.1621
39		H		3.1217		-2.1612		2.8545		H		1		UNL1		0.1519
40		H		2.1044		0.4942		1.4111		H		1		UNL1		0.1462
41		H		2.7292		2.8044		2.1010		H		1		UNL1		0.1474
42		H		4.4797		3.4998		-1.7471		H		1		UNL1		0.1476
43		H		3.8750		1.1841		-2.4435		H		1		UNL1		0.1303
44		H		-3.6190		-1.8609		-0.2152		H		1		UNL1		0.1888
45		H		-6.0668		-1.6584		0.0976		H		1		UNL1		0.1572
@<TRIPOS>BOND
1		43		24		1
2		33		13		1
3		42		23		1
4		24		23		ar
5		24		18		ar
6		34		14		1
7		23		21		ar
8		13		12		1
9		13		18		1
10		13		14		1
11		32		11		1
12		11		12		ar
13		11		10		ar
14		12		25		ar
15		31		10		1
16		10		9		ar
17		25		8		ar
18		18		19		ar
19		14		15		1
20		9		8		ar
21		8		7		1
22		7		30		1
23		7		6		1
24		44		26		1
25		6		26		ar
26		6		5		ar
27		26		27		ar
28		29		5		1
29		5		4		ar
30		27		45		1
31		27		3		ar
32		21		22		1
33		21		20		ar
34		4		3		ar
35		4		28		1
36		3		2		1
37		2		1		3
38		19		20		ar
39		19		40		1
40		36		16		1
41		15		35		1
42		15		16		1
43		15		17		1
44		20		41		1
45		16		17		1
46		16		37		1
47		38		17		1
48		17		39		1

