@<TRIPOS>MOLECULE
LY-2014-EJPS-334-2-1d
 45 48 0 0 0
SMALL
MULLIKEN_CHARGES
****
Gaussian 16 #p B3LYP/6-31G* opt
@<TRIPOS>ATOM
1		N		9.1513		-0.5339		0.1536		N.1		1		UNL1		-0.4838
2		C		7.9999		-0.3642		0.1299		C.1		1		UNL1		0.2279
3		C		6.5848		-0.1535		0.1010		C.ar		1		UNL1		0.1316
4		C		5.7071		-1.2212		-0.1484		C.ar		1		UNL1		-0.1531
5		C		4.3311		-1.0307		-0.1795		C.ar		1		UNL1		-0.1595
6		C		3.7985		0.2527		0.0420		C.ar		1		UNL1		0.3825
7		N		2.4352		0.5538		0.0325		N.pl3		1		UNL1		-0.7658
8		C		1.3130		-0.2202		-0.1729		C.ar		1		UNL1		0.7005
9		N		1.4291		-1.5293		-0.4239		N.ar		1		UNL1		-0.4771
10		C		0.2734		-2.1803		-0.6028		C.ar		1		UNL1		0.0696
11		C		-0.9713		-1.5684		-0.5381		C.ar		1		UNL1		-0.1981
12		C		-0.9795		-0.1916		-0.2739		C.ar		1		UNL1		0.3383
13		C		-2.2746		0.6406		-0.2432		C.3		1		UNL1		-0.1009
14		N		-2.0692		1.8131		0.5943		N.3		1		UNL1		-0.5860
15		C		-2.8323		3.0146		0.3228		C.3		1		UNL1		0.0316
16		C		-4.1241		3.0324		-0.4428		C.3		1		UNL1		-0.3205
17		C		-2.9006		3.7071		-1.0270		C.3		1		UNL1		-0.3271
18		C		-3.4731		-0.1906		0.2158		C.ar		1		UNL1		0.1606
19		C		-3.7407		-0.3585		1.5795		C.ar		1		UNL1		-0.1571
20		C		-4.8142		-1.1466		1.9945		C.ar		1		UNL1		-0.1339
21		C		-5.6403		-1.7788		1.0621		C.ar		1		UNL1		-0.1957
22		C		-5.3627		-1.5963		-0.2864		C.ar		1		UNL1		0.3836
23		F		-6.1532		-2.1902		-1.2066		F		1		UNL1		-0.2986
24		C		-4.2987		-0.8154		-0.7256		C.ar		1		UNL1		-0.2741
25		N		0.1597		0.4768		-0.0943		N.ar		1		UNL1		-0.5786
26		C		4.6796		1.3244		0.2925		C.ar		1		UNL1		-0.2058
27		C		6.0501		1.1280		0.3222		C.ar		1		UNL1		-0.1401
28		H		6.1115		-2.2138		-0.3200		H		1		UNL1		0.1591
29		H		3.6626		-1.8571		-0.3720		H		1		UNL1		0.1900
30		H		2.1954		1.5209		0.2091		H		1		UNL1		0.3442
31		H		0.3582		-3.2467		-0.8042		H		1		UNL1		0.1584
32		H		-1.8851		-2.1312		-0.6755		H		1		UNL1		0.1624
33		H		-2.4495		0.9030		-1.3063		H		1		UNL1		0.1481
34		H		-1.0750		2.0309		0.5850		H		1		UNL1		0.3265
35		H		-2.7995		3.6843		1.1805		H		1		UNL1		0.1430
36		H		-4.9332		3.6483		-0.0594		H		1		UNL1		0.1562
37		H		-4.4648		2.1164		-0.9150		H		1		UNL1		0.1620
38		H		-2.8579		4.7928		-1.0563		H		1		UNL1		0.1503
39		H		-2.4247		3.2229		-1.8767		H		1		UNL1		0.1498
40		H		-3.1107		0.1518		2.3000		H		1		UNL1		0.1530
41		H		-5.0158		-1.2698		3.0551		H		1		UNL1		0.1416
42		H		-6.4843		-2.3917		1.3606		H		1		UNL1		0.1480
43		H		-4.1340		-0.6981		-1.7934		H		1		UNL1		0.1415
44		H		4.2777		2.3202		0.4651		H		1		UNL1		0.1367
45		H		6.7149		1.9634		0.5164		H		1		UNL1		0.1587
@<TRIPOS>BOND
1		39		17		1
2		43		24		1
3		33		13		1
4		23		22		1
5		38		17		1
6		17		16		1
7		17		15		1
8		37		16		1
9		31		10		1
10		24		22		ar
11		24		18		ar
12		32		11		1
13		10		11		ar
14		10		9		ar
15		11		12		ar
16		16		36		1
17		16		15		1
18		9		8		ar
19		29		5		1
20		28		4		1
21		22		21		ar
22		12		13		1
23		12		25		ar
24		13		18		1
25		13		14		1
26		5		4		ar
27		5		6		ar
28		8		25		ar
29		8		7		1
30		4		3		ar
31		7		6		1
32		7		30		1
33		6		26		ar
34		3		2		1
35		3		27		ar
36		2		1		3
37		18		19		ar
38		26		27		ar
39		26		44		1
40		27		45		1
41		15		14		1
42		15		35		1
43		34		14		1
44		21		42		1
45		21		20		ar
46		19		20		ar
47		19		40		1
48		20		41		1

