@<TRIPOS>MOLECULE
LY-2014-EJPS-334-2-1n
 51 55 0 0 0
SMALL
MULLIKEN_CHARGES
****
Gaussian 16 #p B3LYP/6-31G* opt
@<TRIPOS>ATOM
1		N		-8.9703		0.6970		0.1604		N.1		1		UNL1		-0.4863
2		C		-7.8183		0.5542		0.0704		C.1		1		UNL1		0.2264
3		C		-6.4028		0.3796		-0.0424		C.ar		1		UNL1		0.1305
4		C		-5.6990		0.9381		-1.1243		C.ar		1		UNL1		-0.1406
5		C		-4.3292		0.7646		-1.2272		C.ar		1		UNL1		-0.2055
6		C		-3.6150		0.0301		-0.2578		C.ar		1		UNL1		0.3837
7		N		-2.2396		-0.0896		-0.4511		N.pl3		1		UNL1		-0.7658
8		C		-1.2463		-0.7147		0.2764		C.ar		1		UNL1		0.6955
9		N		-1.5440		-1.3661		1.4066		N.ar		1		UNL1		-0.4793
10		C		-0.5033		-1.9361		2.0295		C.ar		1		UNL1		0.0689
11		C		0.8002		-1.8661		1.5604		C.ar		1		UNL1		-0.1905
12		C		0.9955		-1.1567		0.3665		C.ar		1		UNL1		0.3471
13		C		2.3845		-0.9698		-0.2476		C.3		1		UNL1		-0.0811
14		N		3.1909		-2.1819		-0.0502		N.3		1		UNL1		-0.5861
15		C		2.7799		-3.3068		-0.8602		C.3		1		UNL1		0.0408
16		C		2.9968		-3.3544		-2.3615		C.3		1		UNL1		-0.3203
17		C		3.8179		-4.2256		-1.4322		C.3		1		UNL1		-0.3337
18		C		3.0820		0.2406		0.3824		C.ar		1		UNL1		0.0471
19		C		3.8821		0.0555		1.4955		C.ar		1		UNL1		-0.1984
20		C		4.5691		1.1312		2.1031		C.ar		1		UNL1		-0.1331
21		C		4.4523		2.4003		1.5912		C.ar		1		UNL1		-0.1864
22		C		3.6337		2.6478		0.4578		C.ar		1		UNL1		0.1350
23		C		3.5065		3.9584		-0.0760		C.ar		1		UNL1		-0.1960
24		C		2.7068		4.2072		-1.1668		C.ar		1		UNL1		-0.1298
25		C		1.9907		3.1459		-1.7664		C.ar		1		UNL1		-0.1398
26		C		2.0919		1.8620		-1.2765		C.ar		1		UNL1		-0.1954
27		C		2.9207		1.5616		-0.1580		C.ar		1		UNL1		0.0828
28		N		-0.0226		-0.5900		-0.2806		N.ar		1		UNL1		-0.5538
29		C		-4.3176		-0.5294		0.8261		C.ar		1		UNL1		-0.1601
30		C		-5.6919		-0.3517		0.9236		C.ar		1		UNL1		-0.1535
31		H		-6.2333		1.5062		-1.8789		H		1		UNL1		0.1565
32		H		-3.7958		1.2015		-2.0684		H		1		UNL1		0.1347
33		H		-1.8650		0.3666		-1.2731		H		1		UNL1		0.3446
34		H		-0.7393		-2.4721		2.9474		H		1		UNL1		0.1531
35		H		1.6287		-2.3398		2.0711		H		1		UNL1		0.1633
36		H		2.2200		-0.7748		-1.3162		H		1		UNL1		0.1464
37		H		4.1665		-1.9570		-0.2319		H		1		UNL1		0.3040
38		H		1.8692		-3.7749		-0.4921		H		1		UNL1		0.1523
39		H		3.5002		-2.5105		-2.8275		H		1		UNL1		0.1523
40		H		2.2420		-3.8247		-2.9864		H		1		UNL1		0.1552
41		H		4.8638		-3.9617		-1.2885		H		1		UNL1		0.1524
42		H		3.6313		-5.2957		-1.4112		H		1		UNL1		0.1598
43		H		3.9917		-0.9437		1.9044		H		1		UNL1		0.1496
44		H		5.1914		0.9433		2.9738		H		1		UNL1		0.1326
45		H		4.9811		3.2342		2.0465		H		1		UNL1		0.1319
46		H		4.0567		4.7665		0.4005		H		1		UNL1		0.1316
47		H		2.6188		5.2144		-1.5648		H		1		UNL1		0.1319
48		H		1.3496		3.3462		-2.6209		H		1		UNL1		0.1278
49		H		1.5021		1.0755		-1.7311		H		1		UNL1		0.1510
50		H		-3.7774		-1.0925		1.5733		H		1		UNL1		0.1893
51		H		-6.2270		-0.7860		1.7623		H		1		UNL1		0.1571
@<TRIPOS>BOND
1		40		16		1
2		39		16		1
3		48		25		1
4		16		17		1
5		16		15		1
6		32		5		1
7		31		4		1
8		25		26		ar
9		25		24		ar
10		49		26		1
11		47		24		1
12		17		42		1
13		17		41		1
14		17		15		1
15		36		13		1
16		26		27		ar
17		33		7		1
18		5		4		ar
19		5		6		ar
20		24		23		ar
21		4		3		ar
22		15		38		1
23		15		14		1
24		7		6		1
25		7		8		1
26		28		8		ar
27		28		12		ar
28		6		29		ar
29		13		14		1
30		13		12		1
31		13		18		1
32		37		14		1
33		27		18		ar
34		27		22		ar
35		23		46		1
36		23		22		ar
37		3		2		1
38		3		30		ar
39		2		1		3
40		8		9		ar
41		12		11		ar
42		18		19		ar
43		22		21		ar
44		29		30		ar
45		29		50		1
46		30		51		1
47		9		10		ar
48		19		43		1
49		19		20		ar
50		11		10		ar
51		11		35		1
52		21		45		1
53		21		20		ar
54		10		34		1
55		20		44		1

