@<TRIPOS>MOLECULE
LY-2014-EJPS-334-2-1f
 45 48 0 0 0
SMALL
MULLIKEN_CHARGES
****
Gaussian 16 #p B3LYP/6-31G* opt
@<TRIPOS>ATOM
1		N		8.5134		-1.8007		-0.2881		N.1		1		UNL1		-0.4852
2		C		7.3922		-1.4872		-0.2789		C.1		1		UNL1		0.2271
3		C		6.0142		-1.1020		-0.2694		C.ar		1		UNL1		0.1310
4		C		5.4409		-0.5218		0.8741		C.ar		1		UNL1		-0.1532
5		C		4.1047		-0.1425		0.8971		C.ar		1		UNL1		-0.1598
6		C		3.3021		-0.3395		-0.2422		C.ar		1		UNL1		0.3831
7		N		1.9531		0.0054		-0.3264		N.pl3		1		UNL1		-0.7655
8		C		1.0768		0.5763		0.5738		C.ar		1		UNL1		0.6911
9		N		1.4963		0.9104		1.8036		N.ar		1		UNL1		-0.4762
10		C		0.5678		1.4579		2.5937		C.ar		1		UNL1		0.0742
11		C		-0.7442		1.6751		2.1894		C.ar		1		UNL1		-0.2097
12		C		-1.0720		1.2875		0.8839		C.ar		1		UNL1		0.3686
13		C		-2.5018		1.4422		0.3553		C.3		1		UNL1		-0.0946
14		N		-2.5239		2.1711		-0.9166		N.3		1		UNL1		-0.5604
15		C		-2.2137		3.5759		-0.8113		C.3		1		UNL1		0.0206
16		C		-0.7958		4.0226		-1.0764		C.3		1		UNL1		-0.3009
17		C		-1.8804		4.3026		-2.0871		C.3		1		UNL1		-0.3256
18		C		-3.1574		0.0775		0.1829		C.ar		1		UNL1		0.1113
19		C		-4.0765		-0.3936		1.1258		C.ar		1		UNL1		-0.1764
20		C		-4.6786		-1.6444		0.9842		C.ar		1		UNL1		-0.1312
21		C		-4.3543		-2.4276		-0.1213		C.ar		1		UNL1		-0.0631
22		CL		-5.1109		-4.0037		-0.3171		Cl		1		UNL1		-0.0228
23		C		-3.4423		-1.9804		-1.0776		C.ar		1		UNL1		-0.1334
24		C		-2.8458		-0.7310		-0.9189		C.ar		1		UNL1		-0.1492
25		N		-0.1652		0.7377		0.0775		N.ar		1		UNL1		-0.5328
26		C		3.8780		-0.9224		-1.3899		C.ar		1		UNL1		-0.2055
27		C		5.2106		-1.2982		-1.4066		C.ar		1		UNL1		-0.1403
28		H		6.0539		-0.3670		1.7565		H		1		UNL1		0.1577
29		H		3.6713		0.3030		1.7806		H		1		UNL1		0.1885
30		H		1.4975		-0.1951		-1.2077		H		1		UNL1		0.3463
31		H		0.8988		1.7348		3.5934		H		1		UNL1		0.1550
32		H		-1.4740		2.1276		2.8512		H		1		UNL1		0.1433
33		H		-3.0610		1.9817		1.1422		H		1		UNL1		0.1181
34		H		-3.4463		2.0542		-1.3330		H		1		UNL1		0.3069
35		H		-2.7666		4.1465		-0.0559		H		1		UNL1		0.1234
36		H		-0.4006		4.8500		-0.4935		H		1		UNL1		0.1498
37		H		-0.0801		3.2445		-1.3182		H		1		UNL1		0.1693
38		H		-2.2382		5.3214		-2.2051		H		1		UNL1		0.1527
39		H		-1.8757		3.7128		-2.9991		H		1		UNL1		0.1609
40		H		-4.3332		0.2223		1.9846		H		1		UNL1		0.1342
41		H		-5.3932		-2.0034		1.7171		H		1		UNL1		0.1566
42		H		-3.2028		-2.6044		-1.9323		H		1		UNL1		0.1562
43		H		-2.1301		-0.3711		-1.6496		H		1		UNL1		0.1655
44		H		3.2664		-1.0792		-2.2755		H		1		UNL1		0.1364
45		H		5.6382		-1.7456		-2.2980		H		1		UNL1		0.1578
@<TRIPOS>BOND
1		39		17		1
2		45		27		1
3		44		26		1
4		38		17		1
5		17		16		1
6		17		15		1
7		42		23		1
8		43		24		1
9		27		26		ar
10		27		3		ar
11		26		6		ar
12		34		14		1
13		37		16		1
14		30		7		1
15		23		24		ar
16		23		21		ar
17		16		15		1
18		16		36		1
19		24		18		ar
20		14		15		1
21		14		13		1
22		15		35		1
23		7		6		1
24		7		8		1
25		22		21		1
26		1		2		3
27		2		3		1
28		3		4		ar
29		6		5		ar
30		21		20		ar
31		25		8		ar
32		25		12		ar
33		18		13		1
34		18		19		ar
35		13		12		1
36		13		33		1
37		8		9		ar
38		4		5		ar
39		4		28		1
40		12		11		ar
41		5		29		1
42		20		19		ar
43		20		41		1
44		19		40		1
45		9		10		ar
46		11		10		ar
47		11		32		1
48		10		31		1

