@<TRIPOS>MOLECULE
LYH-2009-CMC-1537-1M
 47 50 0 0 0
SMALL
MULLIKEN_CHARGES
****
Gaussian 16 #p B3LYP/6-31G* opt
@<TRIPOS>ATOM
1		C		-4.5447		2.4512		-2.0090		C.3		1		UNL1		-0.4432
2		C		-4.1594		2.1795		-0.5435		C.3		1		UNL1		-0.3343
3		C		-3.5675		0.8095		-0.3241		C.ar		1		UNL1		0.0960
4		C		-4.2625		-0.3370		0.0748		C.ar		1		UNL1		0.0647
5		CL		-5.9985		-0.2482		0.3455		Cl		1		UNL1		0.0196
6		N		-3.7246		-1.5267		0.2806		N.ar		1		UNL1		-0.4943
7		C		-2.3982		-1.6155		0.0805		C.ar		1		UNL1		0.6983
8		N		-1.8866		-2.8698		0.3189		N.pl3		1		UNL1		-0.7724
9		C		-0.5963		-3.3970		0.2307		C.ar		1		UNL1		0.3808
10		C		0.5425		-2.6564		-0.1336		C.ar		1		UNL1		-0.1621
11		C		1.7824		-3.2811		-0.1910		C.ar		1		UNL1		-0.1563
12		C		1.9246		-4.6455		0.1087		C.ar		1		UNL1		0.1334
13		C		3.2073		-5.2764		0.0417		C.1		1		UNL1		0.2285
14		N		4.2500		-5.7908		-0.0147		N.1		1		UNL1		-0.4806
15		C		0.7848		-5.3832		0.4746		C.ar		1		UNL1		-0.1401
16		C		-0.4536		-4.7662		0.5339		C.ar		1		UNL1		-0.2039
17		N		-1.6005		-0.6170		-0.3196		N.ar		1		UNL1		-0.5514
18		C		-2.1983		0.5493		-0.5151		C.ar		1		UNL1		0.5434
19		O		-1.4470		1.5985		-0.9552		O.3		1		UNL1		-0.5604
20		C		-0.0646		1.5018		-0.9630		C.ar		1		UNL1		0.3375
21		C		0.5756		1.0466		-2.1367		C.ar		1		UNL1		-0.1513
22		C		1.9462		1.0392		-2.2089		C.ar		1		UNL1		-0.1998
23		C		2.7332		1.4890		-1.1146		C.ar		1		UNL1		0.1511
24		C		4.1476		1.4924		-1.1836		C.ar		1		UNL1		-0.2206
25		C		4.9094		1.9371		-0.1169		C.ar		1		UNL1		0.1415
26		C		6.3406		1.9414		-0.2033		C.1		1		UNL1		0.2391
27		N		7.5020		1.9514		-0.2671		N.1		1		UNL1		-0.4697
28		C		4.2704		2.3957		1.0694		C.ar		1		UNL1		-0.1395
29		C		2.9006		2.4026		1.1607		C.ar		1		UNL1		-0.1910
30		C		2.0901		1.9557		0.0822		C.ar		1		UNL1		0.1001
31		C		0.6660		1.9472		0.1186		C.ar		1		UNL1		-0.0132
32		BR		-0.2763		2.5573		1.6556		Br		1		UNL1		-0.0857
33		H		-3.6710		2.3767		-2.6649		H		1		UNL1		0.1538
34		H		-5.2972		1.7361		-2.3580		H		1		UNL1		0.1582
35		H		-4.9607		3.4593		-2.1128		H		1		UNL1		0.1536
36		H		-3.4272		2.9242		-0.2145		H		1		UNL1		0.1697
37		H		-5.0413		2.2925		0.0935		H		1		UNL1		0.1677
38		H		-2.6116		-3.5155		0.6062		H		1		UNL1		0.3544
39		H		0.4475		-1.6063		-0.3667		H		1		UNL1		0.1911
40		H		2.6572		-2.7033		-0.4716		H		1		UNL1		0.1578
41		H		0.8781		-6.4383		0.7100		H		1		UNL1		0.1616
42		H		-1.3282		-5.3470		0.8173		H		1		UNL1		0.1417
43		H		-0.0406		0.7135		-2.9649		H		1		UNL1		0.1621
44		H		2.4457		0.6922		-3.1088		H		1		UNL1		0.1578
45		H		4.6336		1.1420		-2.0891		H		1		UNL1		0.1680
46		H		4.8785		2.7394		1.8994		H		1		UNL1		0.1673
47		H		2.4197		2.7526		2.0665		H		1		UNL1		0.1711
@<TRIPOS>BOND
1		44		22		1
2		43		21		1
3		33		1		1
4		34		1		1
5		22		21		ar
6		22		23		ar
7		21		20		ar
8		35		1		1
9		45		24		1
10		1		2		1
11		24		23		ar
12		24		25		ar
13		23		30		ar
14		20		19		1
15		20		31		ar
16		19		18		1
17		2		3		1
18		2		36		1
19		2		37		1
20		18		3		ar
21		18		17		ar
22		40		11		1
23		39		10		1
24		3		4		ar
25		17		7		ar
26		27		26		3
27		26		25		1
28		11		10		ar
29		11		12		ar
30		10		9		ar
31		25		28		ar
32		14		13		3
33		13		12		1
34		4		6		ar
35		4		5		1
36		7		6		ar
37		7		8		1
38		30		31		ar
39		30		29		ar
40		12		15		ar
41		31		32		1
42		9		8		1
43		9		16		ar
44		8		38		1
45		15		16		ar
46		15		41		1
47		16		42		1
48		28		29		ar
49		28		46		1
50		29		47		1

