@<TRIPOS>MOLECULE
LYH-2009-CMC-1537-1K
 46 49 0 0 0
SMALL
MULLIKEN_CHARGES
****
Gaussian 16 #p B3LYP/6-31G* opt
@<TRIPOS>ATOM
1		C		-4.3929		-3.4133		0.3187		C.3		1		UNL1		-0.4510
2		C		-4.4970		-2.5016		-0.9185		C.3		1		UNL1		-0.3307
3		C		-4.0436		-1.0889		-0.6447		C.ar		1		UNL1		0.0911
4		C		-4.8591		-0.0203		-0.2602		C.ar		1		UNL1		0.0653
5		CL		-6.5938		-0.2690		-0.0954		Cl		1		UNL1		0.0162
6		N		-4.4435		1.2066		0.0051		N.ar		1		UNL1		-0.4956
7		C		-3.1200		1.4137		-0.1041		C.ar		1		UNL1		0.6971
8		N		-2.7362		2.7040		0.1808		N.pl3		1		UNL1		-0.7722
9		C		-1.4921		3.3383		0.1903		C.ar		1		UNL1		0.3807
10		C		-0.2712		2.6997		-0.0941		C.ar		1		UNL1		-0.1618
11		C		0.9126		3.4262		-0.0558		C.ar		1		UNL1		-0.1573
12		C		0.9175		4.7939		0.2625		C.ar		1		UNL1		0.1325
13		C		2.1440		5.5303		0.2951		C.1		1		UNL1		0.2283
14		N		3.1410		6.1308		0.3203		N.1		1		UNL1		-0.4829
15		C		-0.3040		5.4294		0.5480		C.ar		1		UNL1		-0.1404
16		C		-1.4872		4.7108		0.5118		C.ar		1		UNL1		-0.2042
17		N		-2.2115		0.4950		-0.4539		N.ar		1		UNL1		-0.5503
18		C		-2.6877		-0.7150		-0.7087		C.ar		1		UNL1		0.5469
19		O		-1.8151		-1.6922		-1.0794		O.3		1		UNL1		-0.5625
20		C		-0.4502		-1.4386		-1.0604		C.ar		1		UNL1		0.3328
21		C		0.1655		-0.9930		-2.2502		C.ar		1		UNL1		-0.1506
22		C		1.5273		-0.8251		-2.2963		C.ar		1		UNL1		-0.2016
23		C		2.3317		-1.0979		-1.1579		C.ar		1		UNL1		0.1525
24		C		3.7412		-0.9288		-1.1987		C.ar		1		UNL1		-0.2269
25		C		4.5005		-1.2013		-0.0875		C.ar		1		UNL1		0.0849
26		BR		6.3944		-0.9739		-0.1469		Br		1		UNL1		-0.1120
27		C		3.9064		-1.6512		1.1128		C.ar		1		UNL1		-0.1491
28		C		2.5431		-1.8229		1.1769		C.ar		1		UNL1		-0.1860
29		C		1.7144		-1.5556		0.0550		C.ar		1		UNL1		0.0924
30		C		0.2984		-1.7170		0.0628		C.ar		1		UNL1		-0.0112
31		BR		-0.6055		-2.3179		1.6284		Br		1		UNL1		-0.0885
32		H		-5.0417		-3.0553		1.1253		H		1		UNL1		0.1560
33		H		-4.6970		-4.4351		0.0662		H		1		UNL1		0.1499
34		H		-3.3650		-3.4433		0.6935		H		1		UNL1		0.1682
35		H		-3.8820		-2.9157		-1.7240		H		1		UNL1		0.1627
36		H		-5.5293		-2.4844		-1.2795		H		1		UNL1		0.1661
37		H		-3.5317		3.2816		0.4228		H		1		UNL1		0.3534
38		H		-0.2604		1.6484		-0.3400		H		1		UNL1		0.1941
39		H		1.8507		2.9260		-0.2749		H		1		UNL1		0.1601
40		H		-0.3170		6.4856		0.7965		H		1		UNL1		0.1600
41		H		-2.4258		5.2132		0.7337		H		1		UNL1		0.1404
42		H		-0.4618		-0.7946		-3.1128		H		1		UNL1		0.1572
43		H		2.0063		-0.4827		-3.2091		H		1		UNL1		0.1529
44		H		4.2082		-0.5838		-2.1153		H		1		UNL1		0.1617
45		H		4.5296		-1.8573		1.9758		H		1		UNL1		0.1638
46		H		2.0865		-2.1669		2.0978		H		1		UNL1		0.1679
@<TRIPOS>BOND
1		43		22		1
2		42		21		1
3		22		21		ar
4		22		23		ar
5		21		20		ar
6		44		24		1
7		35		2		1
8		36		2		1
9		24		23		ar
10		24		25		ar
11		23		29		ar
12		19		20		1
13		19		18		1
14		20		30		ar
15		2		3		1
16		2		1		1
17		18		3		ar
18		18		17		ar
19		3		4		ar
20		17		7		ar
21		38		10		1
22		39		11		1
23		4		5		1
24		4		6		ar
25		26		25		1
26		7		6		ar
27		7		8		1
28		10		11		ar
29		10		9		ar
30		25		27		ar
31		11		12		ar
32		29		30		ar
33		29		28		ar
34		30		31		1
35		33		1		1
36		8		9		1
37		8		37		1
38		9		16		ar
39		12		13		1
40		12		15		ar
41		13		14		3
42		1		34		1
43		1		32		1
44		16		15		ar
45		16		41		1
46		15		40		1
47		27		28		ar
48		27		45		1
49		28		46		1

