@<TRIPOS>MOLECULE
LYH-2009-CMC-1537-1B
 40 43 0 0 0
SMALL
MULLIKEN_CHARGES
****
Gaussian 16 #p B3LYP/6-31G* opt
@<TRIPOS>ATOM
1		N		-8.1680		-4.6374		0.1798		N.1		1		UNL1		-0.4815
2		C		-7.2475		-3.9259		0.1427		C.1		1		UNL1		0.2296
3		C		-6.1138		-3.0534		0.0966		C.ar		1		UNL1		0.1331
4		C		-6.2822		-1.6595		0.1223		C.ar		1		UNL1		-0.1534
5		C		-5.1902		-0.8011		0.0778		C.ar		1		UNL1		-0.1609
6		C		-3.8898		-1.3317		0.0057		C.ar		1		UNL1		0.3800
7		N		-2.7224		-0.5623		-0.0450		N.pl3		1		UNL1		-0.7689
8		C		-2.5054		0.7937		-0.0326		C.ar		1		UNL1		0.7030
9		N		-3.5396		1.6411		0.0382		N.ar		1		UNL1		-0.4910
10		C		-3.2171		2.9292		0.0461		C.ar		1		UNL1		0.1357
11		CL		-4.5541		4.0594		0.1370		Cl		1		UNL1		0.0214
12		C		-1.9250		3.4208		-0.0131		C.ar		1		UNL1		-0.2072
13		C		-0.9343		2.4256		-0.0838		C.ar		1		UNL1		0.5793
14		O		0.3463		2.8558		-0.1292		O.3		1		UNL1		-0.5611
15		C		1.3916		1.9395		-0.2889		C.ar		1		UNL1		0.3549
16		C		1.5605		1.2725		-1.5243		C.ar		1		UNL1		-0.1390
17		C		2.6485		0.4519		-1.7023		C.ar		1		UNL1		-0.2057
18		C		3.6064		0.2687		-0.6672		C.ar		1		UNL1		0.1460
19		C		4.7370		-0.5743		-0.8324		C.ar		1		UNL1		-0.2207
20		C		5.6385		-0.7185		0.1945		C.ar		1		UNL1		0.0792
21		BR		7.1596		-1.8550		-0.0277		Br		1		UNL1		-0.1234
22		C		5.4733		-0.0433		1.4260		C.ar		1		UNL1		-0.1518
23		C		4.3848		0.7792		1.6045		C.ar		1		UNL1		-0.1897
24		C		3.4239		0.9599		0.5742		C.ar		1		UNL1		0.1344
25		C		2.2910		1.8002		0.7370		C.ar		1		UNL1		-0.2354
26		N		-1.1992		1.1302		-0.0951		N.ar		1		UNL1		-0.5596
27		C		-3.7200		-2.7302		-0.0199		C.ar		1		UNL1		-0.2052
28		C		-4.8124		-3.5805		0.0247		C.ar		1		UNL1		-0.1399
29		H		-7.2836		-1.2445		0.1780		H		1		UNL1		0.1627
30		H		-5.3318		0.2696		0.0986		H		1		UNL1		0.1992
31		H		-1.8534		-1.0793		-0.0941		H		1		UNL1		0.3525
32		H		-1.6826		4.4740		-0.0061		H		1		UNL1		0.1789
33		H		0.8324		1.4204		-2.3145		H		1		UNL1		0.1492
34		H		2.7909		-0.0654		-2.6474		H		1		UNL1		0.1456
35		H		4.8818		-1.0999		-1.7707		H		1		UNL1		0.1563
36		H		6.2046		-0.1798		2.2149		H		1		UNL1		0.1588
37		H		4.2510		1.3020		2.5480		H		1		UNL1		0.1459
38		H		2.1362		2.3373		1.6678		H		1		UNL1		0.1487
39		H		-2.7177		-3.1488		-0.0750		H		1		UNL1		0.1395
40		H		-4.6662		-4.6555		0.0044		H		1		UNL1		0.1606
@<TRIPOS>BOND
1		34		17		1
2		33		16		1
3		35		19		1
4		17		16		ar
5		17		18		ar
6		16		15		ar
7		19		18		ar
8		19		20		ar
9		18		24		ar
10		15		14		1
11		15		25		ar
12		14		13		1
13		26		13		ar
14		26		8		ar
15		31		7		1
16		13		12		ar
17		39		27		1
18		7		8		1
19		7		6		1
20		8		9		ar
21		21		20		1
22		27		6		ar
23		27		28		ar
24		12		32		1
25		12		10		ar
26		40		28		1
27		6		5		ar
28		28		3		ar
29		9		10		ar
30		10		11		1
31		5		30		1
32		5		4		ar
33		3		4		ar
34		3		2		1
35		4		29		1
36		2		1		3
37		20		22		ar
38		24		25		ar
39		24		23		ar
40		25		38		1
41		22		23		ar
42		22		36		1
43		23		37		1

