@<TRIPOS>MOLECULE
LYH-2009-CMC-1537-1L
 47 50 0 0 0
SMALL
MULLIKEN_CHARGES
****
Gaussian 16 #p B3LYP/6-31G* opt
@<TRIPOS>ATOM
1		C		0.0573		5.0094		1.1456		C.3		1		UNL1		-0.4425
2		C		0.2846		4.3920		-0.2465		C.3		1		UNL1		-0.3324
3		C		0.8027		2.9761		-0.1904		C.ar		1		UNL1		0.0888
4		C		2.1415		2.5927		-0.2134		C.ar		1		UNL1		0.0670
5		CL		3.3962		3.8205		-0.3305		Cl		1		UNL1		0.0191
6		N		2.5918		1.3442		-0.1520		N.ar		1		UNL1		-0.4901
7		C		1.6585		0.3952		-0.0547		C.ar		1		UNL1		0.7012
8		N		2.0140		-0.9313		0.0092		N.pl3		1		UNL1		-0.7714
9		C		3.2557		-1.5745		-0.0078		C.ar		1		UNL1		0.3805
10		C		4.4932		-0.9114		-0.0912		C.ar		1		UNL1		-0.1620
11		C		5.6705		-1.6499		-0.0989		C.ar		1		UNL1		-0.1535
12		C		5.6509		-3.0520		-0.0246		C.ar		1		UNL1		0.1329
13		C		6.8713		-3.7998		-0.0331		C.1		1		UNL1		0.2294
14		N		7.8626		-4.4098		-0.0395		N.1		1		UNL1		-0.4816
15		C		4.4121		-3.7117		0.0584		C.ar		1		UNL1		-0.1399
16		C		3.2352		-2.9816		0.0664		C.ar		1		UNL1		-0.2057
17		N		0.3268		0.6033		-0.0093		N.ar		1		UNL1		-0.5641
18		C		-0.0632		1.8628		-0.0729		C.ar		1		UNL1		0.5371
19		O		-1.3920		2.1459		-0.0429		O.3		1		UNL1		-0.5642
20		C		-2.3267		1.1324		0.1655		C.ar		1		UNL1		0.3653
21		C		-2.3882		0.4701		1.4148		C.ar		1		UNL1		-0.1381
22		C		-3.3824		-0.4507		1.6387		C.ar		1		UNL1		-0.2030
23		C		-4.3502		-0.7436		0.6377		C.ar		1		UNL1		0.1450
24		C		-5.3825		-1.6883		0.8488		C.ar		1		UNL1		-0.2151
25		C		-6.3135		-1.9509		-0.1439		C.ar		1		UNL1		0.1324
26		C		-7.3537		-2.9113		0.0815		C.1		1		UNL1		0.2366
27		N		-8.2000		-3.6900		0.2578		N.1		1		UNL1		-0.4754
28		C		-6.2417		-1.2684		-1.3929		C.ar		1		UNL1		-0.1425
29		C		-5.2486		-0.3471		-1.6164		C.ar		1		UNL1		-0.1936
30		C		-4.2784		-0.0573		-0.6185		C.ar		1		UNL1		0.1391
31		C		-3.2411		0.8879		-0.8285		C.ar		1		UNL1		-0.2390
32		H		-0.6734		4.4281		1.7178		H		1		UNL1		0.1531
33		H		0.9903		5.0459		1.7178		H		1		UNL1		0.1597
34		H		-0.3234		6.0323		1.0512		H		1		UNL1		0.1540
35		H		0.9909		5.0087		-0.8095		H		1		UNL1		0.1688
36		H		-0.6590		4.3966		-0.8014		H		1		UNL1		0.1638
37		H		1.2037		-1.5344		0.0724		H		1		UNL1		0.3507
38		H		4.5207		0.1669		-0.1494		H		1		UNL1		0.1990
39		H		6.6226		-1.1329		-0.1635		H		1		UNL1		0.1625
40		H		4.3806		-4.7948		0.1159		H		1		UNL1		0.1605
41		H		2.2826		-3.5024		0.1305		H		1		UNL1		0.1385
42		H		-1.6532		0.7008		2.1779		H		1		UNL1		0.1535
43		H		-3.4428		-0.9651		2.5941		H		1		UNL1		0.1504
44		H		-5.4427		-2.2105		1.7991		H		1		UNL1		0.1624
45		H		-6.9794		-1.4870		-2.1578		H		1		UNL1		0.1622
46		H		-5.1941		0.1736		-2.5686		H		1		UNL1		0.1490
47		H		-3.1694		1.4232		-1.7702		H		1		UNL1		0.1517
@<TRIPOS>BOND
1		46		29		1
2		45		28		1
3		47		31		1
4		29		28		ar
5		29		30		ar
6		28		25		ar
7		31		30		ar
8		31		20		ar
9		35		2		1
10		36		2		1
11		30		23		ar
12		5		4		1
13		2		3		1
14		2		1		1
15		4		3		ar
16		4		6		ar
17		3		18		ar
18		39		11		1
19		6		7		ar
20		38		10		1
21		25		26		1
22		25		24		ar
23		11		10		ar
24		11		12		ar
25		10		9		ar
26		18		19		1
27		18		17		ar
28		7		17		ar
29		7		8		1
30		19		20		1
31		14		13		3
32		13		12		1
33		12		15		ar
34		9		8		1
35		9		16		ar
36		8		37		1
37		15		16		ar
38		15		40		1
39		16		41		1
40		26		27		3
41		20		21		ar
42		23		24		ar
43		23		22		ar
44		24		44		1
45		34		1		1
46		1		32		1
47		1		33		1
48		21		22		ar
49		21		42		1
50		22		43		1

