@<TRIPOS>MOLECULE
LYH-2009-CMC-1537-1O
 49 52 0 0 0
SMALL
MULLIKEN_CHARGES
****
Gaussian 16 #p B3LYP/6-31G* opt
@<TRIPOS>ATOM
1		C		1.3769		4.2192		-1.6911		C.3		1		UNL1		-0.4529
2		C		0.6254		3.9719		-0.3674		C.3		1		UNL1		-0.1520
3		C		1.5620		4.0668		0.8550		C.3		1		UNL1		-0.4551
4		C		-0.1707		2.6752		-0.3690		C.ar		1		UNL1		0.1016
5		C		-1.5502		2.5807		-0.1787		C.ar		1		UNL1		0.0540
6		CL		-2.5189		4.0337		0.0655		Cl		1		UNL1		0.0145
7		N		-2.2611		1.4574		-0.1558		N.ar		1		UNL1		-0.4888
8		C		-1.5715		0.3305		-0.3304		C.ar		1		UNL1		0.7034
9		N		-2.2060		-0.8903		-0.3188		N.pl3		1		UNL1		-0.7730
10		C		-3.5445		-1.2517		-0.1476		C.ar		1		UNL1		0.3818
11		C		-4.5945		-0.3378		0.0563		C.ar		1		UNL1		-0.1625
12		C		-5.8936		-0.8055		0.2135		C.ar		1		UNL1		-0.1538
13		C		-6.1831		-2.1792		0.1731		C.ar		1		UNL1		0.1321
14		C		-7.5257		-2.6470		0.3358		C.1		1		UNL1		0.2283
15		N		-8.6170		-3.0303		0.4675		N.1		1		UNL1		-0.4838
16		C		-5.1313		-3.0900		-0.0303		C.ar		1		UNL1		-0.1402
17		C		-3.8345		-2.6305		-0.1877		C.ar		1		UNL1		-0.2056
18		N		-0.2425		0.2497		-0.5301		N.ar		1		UNL1		-0.5618
19		C		0.4134		1.3939		-0.5430		C.ar		1		UNL1		0.5419
20		O		1.7578		1.3581		-0.7488		O.3		1		UNL1		-0.5608
21		C		2.3980		0.1303		-0.8831		C.ar		1		UNL1		0.3347
22		C		2.5363		-0.4146		-2.1778		C.ar		1		UNL1		-0.1466
23		C		3.2506		-1.5728		-2.3578		C.ar		1		UNL1		-0.2057
24		C		3.8578		-2.2342		-1.2577		C.ar		1		UNL1		0.1552
25		C		4.6008		-3.4321		-1.4316		C.ar		1		UNL1		-0.1976
26		C		5.1874		-4.0651		-0.3604		C.ar		1		UNL1		-0.1295
27		C		5.0549		-3.5218		0.9390		C.ar		1		UNL1		-0.1332
28		C		4.3431		-2.3616		1.1468		C.ar		1		UNL1		-0.1869
29		C		3.7246		-1.6842		0.0627		C.ar		1		UNL1		0.0845
30		C		2.9749		-0.4799		0.2080		C.ar		1		UNL1		-0.0106
31		BR		2.7423		0.3243		1.9201		Br		1		UNL1		-0.0971
32		H		2.1819		3.4962		-1.8442		H		1		UNL1		0.1648
33		H		0.6955		4.1648		-2.5478		H		1		UNL1		0.1454
34		H		1.8198		5.2216		-1.6785		H		1		UNL1		0.1470
35		H		-0.1074		4.7771		-0.2698		H		1		UNL1		0.1590
36		H		0.9896		4.0203		1.7881		H		1		UNL1		0.1483
37		H		2.2972		3.2578		0.8695		H		1		UNL1		0.1742
38		H		2.1009		5.0212		0.8374		H		1		UNL1		0.1446
39		H		-1.5539		-1.6524		-0.4545		H		1		UNL1		0.3509
40		H		-4.3833		0.7211		0.0898		H		1		UNL1		0.1995
41		H		-6.6994		-0.0955		0.3705		H		1		UNL1		0.1612
42		H		-5.3389		-4.1546		-0.0634		H		1		UNL1		0.1585
43		H		-3.0287		-3.3440		-0.3440		H		1		UNL1		0.1377
44		H		2.0723		0.1046		-3.0098		H		1		UNL1		0.1523
45		H		3.3621		-1.9969		-3.3519		H		1		UNL1		0.1450
46		H		4.6968		-3.8402		-2.4348		H		1		UNL1		0.1384
47		H		5.7526		-4.9808		-0.5086		H		1		UNL1		0.1394
48		H		5.5200		-4.0248		1.7822		H		1		UNL1		0.1408
49		H		4.2449		-1.9498		2.1447		H		1		UNL1		0.1586
@<TRIPOS>BOND
1		45		23		1
2		44		22		1
3		33		1		1
4		46		25		1
5		23		22		ar
6		23		24		ar
7		22		21		ar
8		32		1		1
9		1		34		1
10		1		2		1
11		25		24		ar
12		25		26		ar
13		24		29		ar
14		21		20		1
15		21		30		ar
16		20		19		1
17		19		18		ar
18		19		4		ar
19		18		8		ar
20		47		26		1
21		39		9		1
22		4		2		1
23		4		5		ar
24		2		35		1
25		2		3		1
26		26		27		ar
27		43		17		1
28		8		9		1
29		8		7		ar
30		9		10		1
31		17		10		ar
32		17		16		ar
33		5		7		ar
34		5		6		1
35		10		11		ar
36		42		16		1
37		16		13		ar
38		11		40		1
39		11		12		ar
40		29		30		ar
41		29		28		ar
42		13		12		ar
43		13		14		1
44		30		31		1
45		12		41		1
46		14		15		3
47		38		3		1
48		3		37		1
49		3		36		1
50		27		28		ar
51		27		48		1
52		28		49		1

