@<TRIPOS>MOLECULE
LYH-2009-CMC-1537-1T
 40 43 0 0 0
SMALL
MULLIKEN_CHARGES
****
Gaussian 16 #p B3LYP/6-31G* opt
@<TRIPOS>ATOM
1		N		-11.0719		-0.9146		0.8572		N.1		1		UNL1		-0.4850
2		C		-9.9474		-0.7922		0.5818		C.1		1		UNL1		0.2273
3		C		-8.5656		-0.6417		0.2420		C.ar		1		UNL1		0.1313
4		C		-7.5659		-0.8280		1.2108		C.ar		1		UNL1		-0.1534
5		C		-6.2206		-0.6855		0.8946		C.ar		1		UNL1		-0.1593
6		C		-5.8433		-0.3482		-0.4184		C.ar		1		UNL1		0.3823
7		N		-4.5240		-0.1815		-0.8421		N.pl3		1		UNL1		-0.7668
8		C		-3.3166		-0.2814		-0.1854		C.ar		1		UNL1		0.7006
9		N		-3.2769		-0.5958		1.1163		N.ar		1		UNL1		-0.4835
10		C		-2.0488		-0.6652		1.6460		C.ar		1		UNL1		0.0684
11		C		-0.8818		-0.4345		0.9328		C.ar		1		UNL1		-0.2127
12		C		-1.0684		-0.1119		-0.4207		C.ar		1		UNL1		0.5478
13		O		-0.0446		0.1322		-1.2900		O.3		1		UNL1		-0.5281
14		C		1.2617		0.1497		-0.8352		C.ar		1		UNL1		0.2994
15		C		2.0690		-0.9349		-1.0830		C.ar		1		UNL1		-0.2347
16		C		3.4397		-0.9215		-0.7205		C.ar		1		UNL1		0.1430
17		C		4.2991		-2.0259		-0.9626		C.ar		1		UNL1		-0.1892
18		C		5.6247		-1.9856		-0.5977		C.ar		1		UNL1		-0.1502
19		C		6.1394		-0.8251		0.0275		C.ar		1		UNL1		0.0780
20		BR		7.9835		-0.7980		0.5230		Br		1		UNL1		-0.1142
21		C		5.3476		0.2686		0.2815		C.ar		1		UNL1		-0.2169
22		C		3.9761		0.2452		-0.0875		C.ar		1		UNL1		0.1509
23		C		3.1220		1.3538		0.1531		C.ar		1		UNL1		-0.2404
24		C		1.7983		1.3103		-0.2139		C.ar		1		UNL1		0.0674
25		BR		0.6678		2.8047		0.1024		Br		1		UNL1		-0.0878
26		N		-2.2594		-0.0358		-0.9848		N.ar		1		UNL1		-0.5435
27		C		-6.8469		-0.1609		-1.3909		C.ar		1		UNL1		-0.2056
28		C		-8.1862		-0.3045		-1.0694		C.ar		1		UNL1		-0.1405
29		H		-7.8501		-1.0882		2.2256		H		1		UNL1		0.1579
30		H		-5.4570		-0.8299		1.6451		H		1		UNL1		0.1895
31		H		-4.3981		0.0649		-1.8159		H		1		UNL1		0.3502
32		H		-2.0027		-0.9210		2.7028		H		1		UNL1		0.1582
33		H		0.0950		-0.5011		1.3921		H		1		UNL1		0.1614
34		H		1.6413		-1.8044		-1.5730		H		1		UNL1		0.1596
35		H		3.8962		-2.9130		-1.4440		H		1		UNL1		0.1508
36		H		6.2800		-2.8294		-0.7828		H		1		UNL1		0.1625
37		H		5.7603		1.1501		0.7608		H		1		UNL1		0.1619
38		H		3.5213		2.2449		0.6263		H		1		UNL1		0.1668
39		H		-6.5654		0.1001		-2.4084		H		1		UNL1		0.1381
40		H		-8.9466		-0.1569		-1.8295		H		1		UNL1		0.1581
@<TRIPOS>BOND
1		39		27		1
2		40		28		1
3		31		7		1
4		34		15		1
5		35		17		1
6		27		28		ar
7		27		6		ar
8		13		14		1
9		13		12		1
10		15		14		ar
11		15		16		ar
12		28		3		ar
13		26		12		ar
14		26		8		ar
15		17		16		ar
16		17		18		ar
17		7		6		1
18		7		8		1
19		14		24		ar
20		36		18		1
21		16		22		ar
22		18		19		ar
23		12		11		ar
24		6		5		ar
25		24		25		1
26		24		23		ar
27		8		9		ar
28		22		23		ar
29		22		21		ar
30		19		21		ar
31		19		20		1
32		23		38		1
33		3		2		1
34		3		4		ar
35		21		37		1
36		2		1		3
37		5		4		ar
38		5		30		1
39		11		33		1
40		11		10		ar
41		9		10		ar
42		4		29		1
43		10		32		1

