@<TRIPOS>MOLECULE
LYH-2009-CMC-1537-1G
 43 46 0 0 0
SMALL
MULLIKEN_CHARGES
****
Gaussian 16 #p B3LYP/6-31G* opt
@<TRIPOS>ATOM
1		C		0.5080		4.2899		0.4554		C.3		1		UNL1		-0.5288
2		C		-0.1988		2.9627		0.4334		C.ar		1		UNL1		0.1039
3		C		-1.5692		2.7956		0.2527		C.ar		1		UNL1		0.0693
4		CL		-2.5779		4.2202		0.0436		Cl		1		UNL1		0.0174
5		N		-2.2148		1.6360		0.2199		N.ar		1		UNL1		-0.4916
6		C		-1.4537		0.5506		0.3805		C.ar		1		UNL1		0.7017
7		N		-2.0144		-0.7059		0.3575		N.pl3		1		UNL1		-0.7727
8		C		-3.3290		-1.1460		0.1859		C.ar		1		UNL1		0.3819
9		C		-3.5341		-2.5403		0.2103		C.ar		1		UNL1		-0.2056
10		C		-4.8009		-3.0765		0.0511		C.ar		1		UNL1		-0.1402
11		C		-5.9073		-2.2296		-0.1383		C.ar		1		UNL1		0.1320
12		C		-7.2192		-2.7768		-0.3029		C.1		1		UNL1		0.2282
13		N		-8.2855		-3.2245		-0.4362		N.1		1		UNL1		-0.4839
14		C		-5.7025		-0.8404		-0.1629		C.ar		1		UNL1		-0.1537
15		C		-4.4340		-0.2959		-0.0038		C.ar		1		UNL1		-0.1623
16		N		-0.1215		0.5457		0.5765		N.ar		1		UNL1		-0.5591
17		C		0.4674		1.7269		0.5971		C.ar		1		UNL1		0.5416
18		O		1.8103		1.7849		0.8018		O.3		1		UNL1		-0.5650
19		C		2.5370		0.6041		0.9131		C.ar		1		UNL1		0.3324
20		C		2.8412		0.1411		2.2111		C.ar		1		UNL1		-0.1506
21		C		3.6360		-0.9663		2.3733		C.ar		1		UNL1		-0.2046
22		C		4.1600		-1.6582		1.2499		C.ar		1		UNL1		0.1544
23		C		4.9833		-2.8054		1.4042		C.ar		1		UNL1		-0.1970
24		C		5.4883		-3.4687		0.3101		C.ar		1		UNL1		-0.1298
25		C		5.1891		-3.0082		-0.9937		C.ar		1		UNL1		-0.1331
26		C		4.3954		-1.8993		-1.1830		C.ar		1		UNL1		-0.1874
27		C		3.8579		-1.1918		-0.0749		C.ar		1		UNL1		0.0861
28		C		3.0312		-0.0368		-0.2016		C.ar		1		UNL1		-0.0044
29		BR		2.5842		0.6553		-1.9195		Br		1		UNL1		-0.1025
30		H		0.1917		4.8942		1.3140		H		1		UNL1		0.1768
31		H		1.5878		4.1475		0.5143		H		1		UNL1		0.1860
32		H		0.2826		4.8691		-0.4464		H		1		UNL1		0.1804
33		H		-1.3169		-1.4285		0.4824		H		1		UNL1		0.3513
34		H		-2.6856		-3.2049		0.3557		H		1		UNL1		0.1379
35		H		-4.9427		-4.1522		0.0720		H		1		UNL1		0.1585
36		H		-6.5508		-0.1793		-0.3090		H		1		UNL1		0.1610
37		H		-4.2885		0.7743		-0.0252		H		1		UNL1		0.1986
38		H		2.4376		0.6837		3.0596		H		1		UNL1		0.1515
39		H		3.8747		-1.3264		3.3702		H		1		UNL1		0.1449
40		H		5.2069		-3.1497		2.4109		H		1		UNL1		0.1383
41		H		6.1163		-4.3449		0.4434		H		1		UNL1		0.1392
42		H		5.5898		-3.5350		-1.8552		H		1		UNL1		0.1406
43		H		4.1693		-1.5514		-2.1845		H		1		UNL1		0.1586
@<TRIPOS>BOND
1		43		26		1
2		29		28		1
3		42		25		1
4		26		25		ar
5		26		27		ar
6		25		24		ar
7		32		1		1
8		13		12		3
9		36		14		1
10		12		11		1
11		28		27		ar
12		28		19		ar
13		14		11		ar
14		14		15		ar
15		11		10		ar
16		27		22		ar
17		37		15		1
18		15		8		ar
19		4		3		1
20		10		35		1
21		10		9		ar
22		8		9		ar
23		8		7		1
24		9		34		1
25		5		3		ar
26		5		6		ar
27		3		2		ar
28		24		41		1
29		24		23		ar
30		7		6		1
31		7		33		1
32		6		16		ar
33		2		1		1
34		2		17		ar
35		1		31		1
36		1		30		1
37		16		17		ar
38		17		18		1
39		18		19		1
40		19		20		ar
41		22		23		ar
42		22		21		ar
43		23		40		1
44		20		21		ar
45		20		38		1
46		21		39		1

