@<TRIPOS>MOLECULE
LYH-2009-CMC-1537-1V
 41 44 0 0 0
SMALL
MULLIKEN_CHARGES
****
Gaussian 16 #p B3LYP/6-31G* opt
@<TRIPOS>ATOM
1		N		10.3372		-0.1594		-0.9905		N.1		1		UNL1		-0.4839
2		C		9.2132		-0.0901		-0.6952		C.1		1		UNL1		0.2279
3		C		7.8320		-0.0050		-0.3308		C.ar		1		UNL1		0.1318
4		C		6.8445		0.1900		-1.3103		C.ar		1		UNL1		-0.1532
5		C		5.4999		0.2748		-0.9708		C.ar		1		UNL1		-0.1591
6		C		5.1117		0.1644		0.3770		C.ar		1		UNL1		0.3818
7		N		3.7916		0.2360		0.8268		N.pl3		1		UNL1		-0.7666
8		C		2.5942		0.4124		0.1698		C.ar		1		UNL1		0.7014
9		N		2.5655		0.5546		-1.1623		N.ar		1		UNL1		-0.4823
10		C		1.3458		0.7176		-1.6900		C.ar		1		UNL1		0.0688
11		C		0.1749		0.7424		-0.9463		C.ar		1		UNL1		-0.2125
12		C		0.3502		0.5834		0.4369		C.ar		1		UNL1		0.5461
13		O		-0.6772		0.5965		1.3386		O.3		1		UNL1		-0.5262
14		C		-1.9818		0.7401		0.9087		C.ar		1		UNL1		0.2960
15		C		-2.5725		2.0186		1.0378		C.ar		1		UNL1		-0.1537
16		C		-3.8926		2.2033		0.7123		C.ar		1		UNL1		-0.1947
17		C		-4.6814		1.1194		0.2425		C.ar		1		UNL1		0.1516
18		C		-6.0439		1.3006		-0.0975		C.ar		1		UNL1		-0.2186
19		C		-6.8091		0.2408		-0.5528		C.ar		1		UNL1		0.1406
20		C		-8.1871		0.4399		-0.8949		C.1		1		UNL1		0.2386
21		N		-9.3054		0.5950		-1.1750		N.1		1		UNL1		-0.4705
22		C		-6.2258		-1.0511		-0.6829		C.ar		1		UNL1		-0.1396
23		C		-4.9068		-1.2520		-0.3592		C.ar		1		UNL1		-0.1919
24		C		-4.0941		-0.1848		0.1109		C.ar		1		UNL1		0.1027
25		C		-2.7212		-0.3383		0.4624		C.ar		1		UNL1		-0.0159
26		BR		-1.8673		-2.0325		0.3285		Br		1		UNL1		-0.0770
27		N		1.5319		0.4217		1.0005		N.ar		1		UNL1		-0.5424
28		C		6.1027		-0.0315		1.3602		C.ar		1		UNL1		-0.2055
29		C		7.4414		-0.1153		1.0154		C.ar		1		UNL1		-0.1403
30		H		7.1375		0.2759		-2.3519		H		1		UNL1		0.1587
31		H		4.7458		0.4245		-1.7297		H		1		UNL1		0.1896
32		H		3.6575		0.1399		1.8256		H		1		UNL1		0.3507
33		H		1.3094		0.8341		-2.7715		H		1		UNL1		0.1598
34		H		-0.7952		0.8732		-1.4059		H		1		UNL1		0.1607
35		H		-1.9559		2.8312		1.4074		H		1		UNL1		0.1658
36		H		-4.3503		3.1832		0.8123		H		1		UNL1		0.1575
37		H		-6.4870		2.2867		0.0030		H		1		UNL1		0.1673
38		H		-6.8354		-1.8739		-1.0408		H		1		UNL1		0.1672
39		H		-4.4684		-2.2378		-0.4609		H		1		UNL1		0.1719
40		H		5.8124		-0.1184		2.4047		H		1		UNL1		0.1386
41		H		8.1924		-0.2664		1.7840		H		1		UNL1		0.1590
@<TRIPOS>BOND
1		33		10		1
2		30		4		1
3		31		5		1
4		10		9		ar
5		10		11		ar
6		34		11		1
7		4		5		ar
8		4		3		ar
9		21		20		3
10		9		8		ar
11		38		22		1
12		1		2		3
13		5		6		ar
14		11		12		ar
15		20		19		1
16		2		3		1
17		22		19		ar
18		22		23		ar
19		19		18		ar
20		39		23		1
21		23		24		ar
22		3		29		ar
23		18		37		1
24		18		17		ar
25		24		17		ar
26		24		25		ar
27		8		7		1
28		8		27		ar
29		17		16		ar
30		26		25		1
31		6		7		1
32		6		28		ar
33		12		27		ar
34		12		13		1
35		25		14		ar
36		16		36		1
37		16		15		ar
38		7		32		1
39		14		15		ar
40		14		13		1
41		29		28		ar
42		29		41		1
43		15		35		1
44		28		40		1

