@<TRIPOS>MOLECULE
LYH-2009-CMC-1537-1Q
 43 46 0 0 0
SMALL
MULLIKEN_CHARGES
****
Gaussian 16 #p B3LYP/6-31G* opt
@<TRIPOS>ATOM
1		C		3.4691		1.2798		1.9772		C.3		1		UNL1		-0.5414
2		C		3.4617		0.5898		0.6355		C.ar		1		UNL1		0.1101
3		C		2.7171		1.0739		-0.4192		C.ar		1		UNL1		0.2710
4		O		2.0248		2.2860		-0.2655		O.3		1		UNL1		-0.5679
5		C		0.6735		2.2859		-0.1961		C.ar		1		UNL1		0.5726
6		C		0.0384		3.5398		-0.1370		C.ar		1		UNL1		-0.2170
7		C		-1.3411		3.4969		-0.0548		C.ar		1		UNL1		0.0689
8		N		-2.0544		2.3576		-0.0325		N.ar		1		UNL1		-0.4891
9		C		-1.3343		1.2340		-0.0949		C.ar		1		UNL1		0.6987
10		N		-1.9540		0.0023		-0.0793		N.pl3		1		UNL1		-0.7679
11		C		-3.2955		-0.3742		-0.0046		C.ar		1		UNL1		0.3822
12		C		-4.3715		0.5296		0.0721		C.ar		1		UNL1		-0.1593
13		C		-5.6729		0.0482		0.1421		C.ar		1		UNL1		-0.1536
14		C		-5.9410		-1.3306		0.1380		C.ar		1		UNL1		0.1311
15		C		-7.2864		-1.8121		0.2105		C.1		1		UNL1		0.2271
16		N		-8.3806		-2.2055		0.2693		N.1		1		UNL1		-0.4853
17		C		-4.8641		-2.2317		0.0614		C.ar		1		UNL1		-0.1407
18		C		-3.5646		-1.7583		-0.0086		C.ar		1		UNL1		-0.2060
19		N		0.0123		1.1425		-0.1753		N.ar		1		UNL1		-0.5576
20		C		2.6953		0.4633		-1.6941		C.ar		1		UNL1		-0.1341
21		C		3.4323		-0.6714		-1.9139		C.ar		1		UNL1		-0.2149
22		C		4.2184		-1.2346		-0.8724		C.ar		1		UNL1		0.1577
23		C		4.9881		-2.4094		-1.0783		C.ar		1		UNL1		-0.1978
24		C		5.7476		-2.9473		-0.0639		C.ar		1		UNL1		-0.1335
25		C		5.7670		-2.3252		1.2054		C.ar		1		UNL1		-0.1319
26		C		5.0320		-1.1821		1.4363		C.ar		1		UNL1		-0.1978
27		C		4.2362		-0.5987		0.4127		C.ar		1		UNL1		0.0556
28		H		4.4872		1.5585		2.2748		H		1		UNL1		0.1668
29		H		3.0691		0.6270		2.7629		H		1		UNL1		0.1673
30		H		2.8677		2.1894		1.9546		H		1		UNL1		0.1727
31		H		0.6037		4.4627		-0.1570		H		1		UNL1		0.1573
32		H		-1.9204		4.4167		-0.0048		H		1		UNL1		0.1562
33		H		-1.2826		-0.7535		-0.1299		H		1		UNL1		0.3496
34		H		-4.1719		1.5913		0.0759		H		1		UNL1		0.1902
35		H		-6.4984		0.7506		0.2011		H		1		UNL1		0.1578
36		H		-5.0545		-3.3000		0.0574		H		1		UNL1		0.1575
37		H		-2.7397		-2.4647		-0.0673		H		1		UNL1		0.1375
38		H		2.0956		0.9106		-2.4798		H		1		UNL1		0.1413
39		H		3.4260		-1.1504		-2.8895		H		1		UNL1		0.1363
40		H		4.9659		-2.8793		-2.0589		H		1		UNL1		0.1323
41		H		6.3317		-3.8473		-0.2349		H		1		UNL1		0.1330
42		H		6.3665		-2.7521		2.0048		H		1		UNL1		0.1326
43		H		5.0597		-0.7206		2.4178		H		1		UNL1		0.1323
@<TRIPOS>BOND
1		39		21		1
2		38		20		1
3		40		23		1
4		21		20		ar
5		21		22		ar
6		20		3		ar
7		23		22		ar
8		23		24		ar
9		22		27		ar
10		3		4		1
11		3		2		ar
12		4		5		1
13		41		24		1
14		5		19		ar
15		5		6		ar
16		19		9		ar
17		31		6		1
18		6		7		ar
19		33		10		1
20		9		10		1
21		9		8		ar
22		10		11		1
23		37		18		1
24		24		25		ar
25		7		8		ar
26		7		32		1
27		18		11		ar
28		18		17		ar
29		11		12		ar
30		36		17		1
31		17		14		ar
32		12		34		1
33		12		13		ar
34		14		13		ar
35		14		15		1
36		13		35		1
37		15		16		3
38		27		2		ar
39		27		26		ar
40		2		1		1
41		25		26		ar
42		25		42		1
43		26		43		1
44		30		1		1
45		1		28		1
46		1		29		1

