@<TRIPOS>MOLECULE
MG-2014-EJMC-600-4-1a
 38 40 0 0 0
SMALL
MULLIKEN_CHARGES
****
Gaussian 16 #p B3LYP/6-31G* opt
@<TRIPOS>ATOM
1		N		8.3309		-1.6433		0.0101		N.1		1		UNL1		-0.4825
2		C		7.2032		-1.3606		0.0687		C.1		1		UNL1		0.2286
3		C		5.8167		-1.0140		0.1415		C.ar		1		UNL1		0.1322
4		C		4.9202		-1.8087		0.8776		C.ar		1		UNL1		-0.1400
5		C		3.5799		-1.4665		0.9433		C.ar		1		UNL1		-0.2055
6		C		3.0903		-0.3236		0.2791		C.ar		1		UNL1		0.3814
7		N		1.7235		-0.0653		0.4065		N.pl3		1		UNL1		-0.7684
8		C		0.9162		0.9369		-0.0844		C.ar		1		UNL1		0.6946
9		N		1.4295		1.9088		-0.8528		N.ar		1		UNL1		-0.4716
10		C		0.5600		2.8368		-1.2660		C.ar		1		UNL1		0.0676
11		C		-0.7892		2.8249		-0.9329		C.ar		1		UNL1		-0.1665
12		C		-1.2181		1.7566		-0.1334		C.ar		1		UNL1		0.2676
13		C		-2.6477		1.5901		0.2867		C.2		1		UNL1		0.2117
14		N		-3.3678		2.5256		0.8077		N.2		1		UNL1		-0.2263
15		O		-2.6860		3.7282		0.9801		O.2		1		UNL1		-0.4904
16		C		-3.3172		0.2733		0.1270		C.ar		1		UNL1		0.1492
17		C		-2.8843		-0.6465		-0.8419		C.ar		1		UNL1		-0.1749
18		C		-3.5392		-1.8605		-1.0151		C.ar		1		UNL1		-0.1452
19		C		-4.6459		-2.1821		-0.2137		C.ar		1		UNL1		0.1351
20		C		-5.3197		-3.4356		-0.3838		C.1		1		UNL1		0.2382
21		N		-5.8669		-4.4532		-0.5216		N.1		1		UNL1		-0.4740
22		C		-5.0858		-1.2683		0.7602		C.ar		1		UNL1		-0.1406
23		C		-4.4265		-0.0585		0.9253		C.ar		1		UNL1		-0.1675
24		N		-0.3758		0.8083		0.2833		N.ar		1		UNL1		-0.5330
25		C		3.9851		0.4732		-0.4583		C.ar		1		UNL1		-0.1599
26		C		5.3287		0.1246		-0.5202		C.ar		1		UNL1		-0.1527
27		H		5.2818		-2.6917		1.3945		H		1		UNL1		0.1604
28		H		2.8960		-2.0887		1.5159		H		1		UNL1		0.1397
29		H		1.1986		-0.7224		0.9701		H		1		UNL1		0.3499
30		H		0.9713		3.6254		-1.8933		H		1		UNL1		0.1610
31		H		-1.4683		3.5992		-1.2628		H		1		UNL1		0.1641
32		H		-3.3662		4.2933		1.3808		H		1		UNL1		0.4294
33		H		-2.0318		-0.4133		-1.4695		H		1		UNL1		0.1504
34		H		-3.2004		-2.5624		-1.7700		H		1		UNL1		0.1627
35		H		-5.9370		-1.5187		1.3850		H		1		UNL1		0.1630
36		H		-4.7615		0.6445		1.6793		H		1		UNL1		0.1637
37		H		3.6185		1.3509		-0.9703		H		1		UNL1		0.1888
38		H		6.0141		0.7435		-1.0906		H		1		UNL1		0.1597
@<TRIPOS>BOND
1		30		10		1
2		34		18		1
3		33		17		1
4		10		11		ar
5		10		9		ar
6		31		11		1
7		38		26		1
8		18		17		ar
9		18		19		ar
10		37		25		1
11		11		12		ar
12		9		8		ar
13		17		16		ar
14		21		20		3
15		26		25		ar
16		26		3		ar
17		25		6		ar
18		20		19		1
19		19		22		ar
20		12		24		ar
21		12		13		1
22		8		24		ar
23		8		7		1
24		1		2		3
25		2		3		1
26		16		13		1
27		16		23		ar
28		3		4		ar
29		6		7		1
30		6		5		ar
31		13		14		2
32		7		29		1
33		22		23		ar
34		22		35		1
35		14		15		1
36		4		5		ar
37		4		27		1
38		23		36		1
39		5		28		1
40		15		32		1

