@<TRIPOS>MOLECULE
MG-2014-EJMC-600-4-1n
 48 50 0 0 0
SMALL
MULLIKEN_CHARGES
****
Gaussian 16 #p B3LYP/6-31G* opt
@<TRIPOS>ATOM
1		C		-4.6468		-2.8492		-1.6415		C.3		1		UNL1		-0.4378
2		C		-4.6886		-1.9811		-0.3786		C.3		1		UNL1		0.0640
3		C		-5.6779		-2.5509		0.6414		C.3		1		UNL1		-0.4665
4		N		-3.3541		-1.9273		0.2519		N.3		1		UNL1		-0.5656
5		C		-2.3677		-1.0460		-0.3858		C.3		1		UNL1		-0.1265
6		C		-2.6597		0.4412		-0.1845		C.ar		1		UNL1		0.2287
7		C		-2.5181		1.0315		1.0810		C.ar		1		UNL1		-0.1919
8		C		-2.8517		2.3630		1.2929		C.ar		1		UNL1		-0.1381
9		C		-3.3426		3.1396		0.2278		C.ar		1		UNL1		0.1257
10		C		-3.6901		4.5145		0.4390		C.1		1		UNL1		0.2379
11		N		-3.9729		5.6299		0.6109		N.1		1		UNL1		-0.4754
12		C		-3.4869		2.5615		-1.0421		C.ar		1		UNL1		-0.1346
13		C		-3.1457		1.2250		-1.2370		C.ar		1		UNL1		-0.2053
14		C		-0.9475		-1.4213		0.0430		C.ar		1		UNL1		0.3092
15		C		-0.6617		-2.6058		0.7316		C.ar		1		UNL1		-0.2044
16		C		0.6776		-2.8363		1.0273		C.ar		1		UNL1		0.0714
17		N		1.6639		-2.0008		0.6856		N.ar		1		UNL1		-0.4745
18		C		1.2787		-0.9015		0.0208		C.ar		1		UNL1		0.6895
19		N		2.2125		0.0279		-0.3876		N.pl3		1		UNL1		-0.7666
20		C		3.6008		0.0890		-0.2617		C.ar		1		UNL1		0.3824
21		C		4.3867		-0.8938		0.3684		C.ar		1		UNL1		-0.1604
22		C		5.7652		-0.7354		0.4378		C.ar		1		UNL1		-0.1531
23		C		6.3975		0.3924		-0.1107		C.ar		1		UNL1		0.1312
24		C		7.8183		0.5420		-0.0321		C.1		1		UNL1		0.2274
25		N		8.9743		0.6644		0.0311		N.1		1		UNL1		-0.4845
26		C		5.6103		1.3736		-0.7394		C.ar		1		UNL1		-0.1404
27		C		4.2358		1.2215		-0.8119		C.ar		1		UNL1		-0.2058
28		N		0.0161		-0.5705		-0.3150		N.ar		1		UNL1		-0.5445
29		H		-3.9436		-2.4635		-2.3883		H		1		UNL1		0.1419
30		H		-5.6356		-2.8826		-2.1127		H		1		UNL1		0.1467
31		H		-4.3432		-3.8712		-1.3897		H		1		UNL1		0.1554
32		H		-5.0355		-0.9713		-0.6608		H		1		UNL1		0.1218
33		H		-6.6783		-2.6345		0.2049		H		1		UNL1		0.1554
34		H		-5.7539		-1.9067		1.5264		H		1		UNL1		0.1435
35		H		-5.3600		-3.5478		0.9686		H		1		UNL1		0.1566
36		H		-3.4630		-1.6412		1.2244		H		1		UNL1		0.2998
37		H		-2.4101		-1.2451		-1.4636		H		1		UNL1		0.1716
38		H		-2.1267		0.4462		1.9098		H		1		UNL1		0.1410
39		H		-2.7325		2.8125		2.2735		H		1		UNL1		0.1617
40		H		-3.8626		3.1602		-1.8657		H		1		UNL1		0.1615
41		H		-3.2529		0.7880		-2.2265		H		1		UNL1		0.1426
42		H		-1.4480		-3.2980		1.0000		H		1		UNL1		0.1637
43		H		0.9830		-3.7330		1.5643		H		1		UNL1		0.1556
44		H		1.7754		0.8050		-0.8670		H		1		UNL1		0.3472
45		H		3.9080		-1.7640		0.7935		H		1		UNL1		0.1885
46		H		6.3653		-1.4975		0.9250		H		1		UNL1		0.1581
47		H		6.0834		2.2512		-1.1678		H		1		UNL1		0.1586
48		H		3.6375		1.9872		-1.3003		H		1		UNL1		0.1377
@<TRIPOS>BOND
1		29		1		1
2		41		13		1
3		30		1		1
4		40		12		1
5		1		31		1
6		1		2		1
7		37		5		1
8		48		27		1
9		13		12		ar
10		13		6		ar
11		47		26		1
12		12		9		ar
13		44		19		1
14		27		26		ar
15		27		20		ar
16		26		23		ar
17		32		2		1
18		19		20		1
19		19		18		1
20		5		6		1
21		5		14		1
22		5		4		1
23		2		4		1
24		2		3		1
25		28		18		ar
26		28		14		ar
27		20		21		ar
28		6		7		ar
29		23		24		1
30		23		22		ar
31		24		25		3
32		18		17		ar
33		14		15		ar
34		33		3		1
35		9		10		1
36		9		8		ar
37		4		36		1
38		21		22		ar
39		21		45		1
40		22		46		1
41		10		11		3
42		3		35		1
43		3		34		1
44		17		16		ar
45		15		42		1
46		15		16		ar
47		16		43		1
48		7		8		ar
49		7		38		1
50		8		39		1

