@<TRIPOS>MOLECULE
MG-2014-EJMC-600-1XING
 46 49 0 0 0
SMALL
MULLIKEN_CHARGES
****
Gaussian 16 #p B3LYP/6-31G* opt
@<TRIPOS>ATOM
1		N		-8.7871		1.3664		-0.4235		N.1		1		UNL1		-0.4822
2		C		-7.6519		1.1101		-0.3998		C.1		1		UNL1		0.2287
3		C		-6.2563		0.7944		-0.3726		C.ar		1		UNL1		0.1322
4		C		-5.5738		0.6743		0.8489		C.ar		1		UNL1		-0.1528
5		C		-4.2192		0.3674		0.8901		C.ar		1		UNL1		-0.1592
6		C		-3.5109		0.1721		-0.3096		C.ar		1		UNL1		0.3815
7		N		-2.1507		-0.1388		-0.3822		N.pl3		1		UNL1		-0.7647
8		C		-1.1878		-0.3356		0.5833		C.ar		1		UNL1		0.6930
9		N		-1.5018		-0.2365		1.8818		N.ar		1		UNL1		-0.4756
10		C		-0.4932		-0.4464		2.7358		C.ar		1		UNL1		0.0739
11		C		0.7991		-0.7510		2.3283		C.ar		1		UNL1		-0.2003
12		C		1.0186		-0.8313		0.9466		C.ar		1		UNL1		0.3432
13		C		2.4020		-1.1493		0.3691		C.3		1		UNL1		-0.1458
14		N		2.3832		-1.9301		-0.8694		N.3		1		UNL1		-0.5411
15		C		1.8832		-3.2766		-0.7182		C.3		1		UNL1		0.0215
16		C		2.8777		-4.3391		-0.3176		C.3		1		UNL1		-0.3073
17		C		2.3458		-4.2909		-1.7299		C.3		1		UNL1		-0.3201
18		C		3.2211		0.1240		0.1540		C.ar		1		UNL1		0.1846
19		C		2.6707		1.2580		-0.4586		C.ar		1		UNL1		-0.1823
20		C		3.4464		2.3895		-0.6928		C.ar		1		UNL1		-0.1374
21		C		4.7966		2.4061		-0.3079		C.ar		1		UNL1		0.1308
22		C		5.5986		3.5719		-0.5398		C.1		1		UNL1		0.2381
23		N		6.2494		4.5178		-0.7273		N.1		1		UNL1		-0.4755
24		C		5.3566		1.2747		0.3083		C.ar		1		UNL1		-0.1367
25		C		4.5701		0.1500		0.5317		C.ar		1		UNL1		-0.1815
26		N		0.0303		-0.6249		0.0741		N.ar		1		UNL1		-0.5647
27		C		-4.1958		0.2930		-1.5356		C.ar		1		UNL1		-0.2059
28		C		-5.5461		0.5989		-1.5702		C.ar		1		UNL1		-0.1398
29		H		-6.1148		0.8238		1.7780		H		1		UNL1		0.1602
30		H		-3.7017		0.2761		1.8339		H		1		UNL1		0.1898
31		H		-1.7737		-0.2544		-1.3143		H		1		UNL1		0.3441
32		H		-0.7443		-0.3693		3.7923		H		1		UNL1		0.1595
33		H		1.5966		-0.9200		3.0434		H		1		UNL1		0.1494
34		H		2.9277		-1.7587		1.1131		H		1		UNL1		0.1511
35		H		1.8250		-1.4313		-1.5609		H		1		UNL1		0.3122
36		H		0.8648		-3.3980		-0.3387		H		1		UNL1		0.1346
37		H		3.9045		-4.0192		-0.1653		H		1		UNL1		0.1576
38		H		2.5439		-5.1373		0.3393		H		1		UNL1		0.1519
39		H		1.6429		-5.0551		-2.0494		H		1		UNL1		0.1527
40		H		3.0211		-3.9367		-2.5028		H		1		UNL1		0.1642
41		H		1.6257		1.2573		-0.7526		H		1		UNL1		0.1553
42		H		3.0137		3.2640		-1.1681		H		1		UNL1		0.1612
43		H		6.4001		1.2863		0.6064		H		1		UNL1		0.1614
44		H		5.0120		-0.7253		1.0002		H		1		UNL1		0.1432
45		H		-3.6569		0.1439		-2.4686		H		1		UNL1		0.1372
46		H		-6.0592		0.6884		-2.5221		H		1		UNL1		0.1601
@<TRIPOS>BOND
1		46		28		1
2		40		17		1
3		45		27		1
4		39		17		1
5		17		15		1
6		17		16		1
7		28		27		ar
8		28		3		ar
9		35		14		1
10		27		6		ar
11		31		7		1
12		42		20		1
13		14		15		1
14		14		13		1
15		41		19		1
16		23		22		3
17		15		36		1
18		15		16		1
19		20		19		ar
20		20		21		ar
21		22		21		1
22		19		18		ar
23		1		2		3
24		2		3		1
25		7		6		1
26		7		8		1
27		3		4		ar
28		16		37		1
29		16		38		1
30		6		5		ar
31		21		24		ar
32		26		8		ar
33		26		12		ar
34		18		13		1
35		18		25		ar
36		24		25		ar
37		24		43		1
38		13		12		1
39		13		34		1
40		25		44		1
41		8		9		ar
42		4		5		ar
43		4		29		1
44		5		30		1
45		12		11		ar
46		9		10		ar
47		11		10		ar
48		11		33		1
49		10		32		1

