@<TRIPOS>MOLECULE
MG-2014-EJMC-600-4-1p
 47 49 0 0 0
SMALL
MULLIKEN_CHARGES
****
Gaussian 16 #p B3LYP/6-31G* opt
@<TRIPOS>ATOM
1		C		-5.7516		-0.3700		-0.3565		C.3		1		UNL1		-0.4514
2		C		-4.8733		-1.6325		-0.4446		C.3		1		UNL1		0.0555
3		C		-4.8102		-2.1738		-1.8776		C.3		1		UNL1		-0.4522
4		N		-3.5258		-1.5209		0.1472		N.3		1		UNL1		-0.5752
5		C		-2.5088		-0.6785		-0.4755		C.3		1		UNL1		-0.1368
6		C		-1.1020		-1.1704		-0.1010		C.ar		1		UNL1		0.3300
7		C		-0.8766		-2.4450		0.4342		C.ar		1		UNL1		-0.1921
8		C		0.4482		-2.7867		0.6718		C.ar		1		UNL1		0.0699
9		N		1.4802		-1.9730		0.4150		N.ar		1		UNL1		-0.4778
10		C		1.1502		-0.7824		-0.1014		C.ar		1		UNL1		0.6908
11		N		2.1311		0.1404		-0.4104		N.pl3		1		UNL1		-0.7671
12		C		3.5196		0.1123		-0.2991		C.ar		1		UNL1		0.3842
13		C		4.2127		1.2673		-0.7181		C.ar		1		UNL1		-0.2059
14		C		5.5938		1.3351		-0.6484		C.ar		1		UNL1		-0.1408
15		C		6.3313		0.2440		-0.1547		C.ar		1		UNL1		0.1300
16		C		7.7585		0.3067		-0.0804		C.1		1		UNL1		0.2259
17		N		8.9202		0.3593		-0.0210		N.1		1		UNL1		-0.4872
18		C		5.6416		-0.9063		0.2632		C.ar		1		UNL1		-0.1536
19		C		4.2562		-0.9807		0.1960		C.ar		1		UNL1		-0.1606
20		N		-0.0938		-0.3426		-0.3750		N.ar		1		UNL1		-0.5512
21		C		-2.6425		0.8413		-0.2991		C.ar		1		UNL1		0.2369
22		C		-2.8006		1.6496		-1.4336		C.ar		1		UNL1		-0.2015
23		C		-2.9507		3.0325		-1.3456		C.ar		1		UNL1		-0.1230
24		C		-2.9425		3.6496		-0.0953		C.ar		1		UNL1		-0.1287
25		C		-2.7765		2.8778		1.0538		C.ar		1		UNL1		-0.1250
26		C		-2.6264		1.4967		0.9396		C.ar		1		UNL1		-0.1386
27		CL		-2.3958		0.5879		2.4418		Cl		1		UNL1		-0.0306
28		H		-5.7918		0.0101		0.6710		H		1		UNL1		0.1442
29		H		-6.7780		-0.5990		-0.6687		H		1		UNL1		0.1402
30		H		-5.3764		0.4342		-0.9972		H		1		UNL1		0.1523
31		H		-5.3596		-2.4062		0.1656		H		1		UNL1		0.1339
32		H		-4.4337		-1.4268		-2.5869		H		1		UNL1		0.1402
33		H		-5.8132		-2.4563		-2.2148		H		1		UNL1		0.1502
34		H		-4.1656		-3.0572		-1.9307		H		1		UNL1		0.1567
35		H		-3.5989		-1.3071		1.1381		H		1		UNL1		0.3176
36		H		-2.5788		-0.8564		-1.5555		H		1		UNL1		0.1724
37		H		-1.7007		-3.1128		0.6439		H		1		UNL1		0.1604
38		H		0.7067		-3.7584		1.0896		H		1		UNL1		0.1516
39		H		1.7304		0.9934		-0.7796		H		1		UNL1		0.3458
40		H		3.6533		2.1175		-1.1016		H		1		UNL1		0.1348
41		H		6.1113		2.2314		-0.9750		H		1		UNL1		0.1556
42		H		6.2026		-1.7531		0.6461		H		1		UNL1		0.1565
43		H		3.7324		-1.8683		0.5203		H		1		UNL1		0.1889
44		H		-2.8027		1.1736		-2.4114		H		1		UNL1		0.1364
45		H		-3.0725		3.6229		-2.2492		H		1		UNL1		0.1389
46		H		-3.0613		4.7257		-0.0077		H		1		UNL1		0.1424
47		H		-2.7592		3.3376		2.0363		H		1		UNL1		0.1570
@<TRIPOS>BOND
1		32		3		1
2		44		22		1
3		45		23		1
4		33		3		1
5		34		3		1
6		3		2		1
7		36		5		1
8		22		23		ar
9		22		21		ar
10		23		24		ar
11		40		13		1
12		30		1		1
13		41		14		1
14		39		11		1
15		13		14		ar
16		13		12		ar
17		29		1		1
18		14		15		ar
19		5		21		1
20		5		6		1
21		5		4		1
22		2		1		1
23		2		4		1
24		2		31		1
25		11		12		1
26		11		10		1
27		20		10		ar
28		20		6		ar
29		1		28		1
30		12		19		ar
31		21		26		ar
32		15		16		1
33		15		18		ar
34		10		9		ar
35		6		7		ar
36		24		46		1
37		24		25		ar
38		16		17		3
39		4		35		1
40		19		18		ar
41		19		43		1
42		18		42		1
43		9		8		ar
44		7		37		1
45		7		8		ar
46		8		38		1
47		26		25		ar
48		26		27		1
49		25		47		1

