@<TRIPOS>MOLECULE
MG-2014-EJMC-600-4-1c
 39 41 0 0 0
SMALL
MULLIKEN_CHARGES
****
Gaussian 16 #p B3LYP/6-31G* opt
@<TRIPOS>ATOM
1		N		8.3759		-1.6295		0.0107		N.1		1		UNL1		-0.4814
2		C		7.2469		-1.3523		0.0697		C.1		1		UNL1		0.2292
3		C		5.8589		-1.0115		0.1433		C.ar		1		UNL1		0.1327
4		C		4.9722		-1.7923		0.9057		C.ar		1		UNL1		-0.1398
5		C		3.6305		-1.4552		0.9728		C.ar		1		UNL1		-0.2054
6		C		3.1305		-0.3318		0.2840		C.ar		1		UNL1		0.3804
7		N		1.7628		-0.0766		0.4170		N.pl3		1		UNL1		-0.7673
8		C		0.9449		0.9057		-0.0927		C.ar		1		UNL1		0.6916
9		N		1.4488		1.8620		-0.8897		N.ar		1		UNL1		-0.4714
10		C		0.5692		2.7669		-1.3278		C.ar		1		UNL1		0.0722
11		C		-0.7805		2.7492		-0.9904		C.ar		1		UNL1		-0.2063
12		C		-1.2020		1.7028		-0.1530		C.ar		1		UNL1		0.2110
13		C		-2.6290		1.5726		0.2879		C.2		1		UNL1		0.2122
14		N		-3.3011		2.5416		0.8237		N.2		1		UNL1		-0.3072
15		N		-2.7671		3.7764		0.9902		N.pl3		1		UNL1		-0.5466
16		C		-3.3367		0.2776		0.1266		C.ar		1		UNL1		0.1539
17		C		-4.5399		0.0405		0.8184		C.ar		1		UNL1		-0.1722
18		C		-5.2350		-1.1486		0.6590		C.ar		1		UNL1		-0.1398
19		C		-4.7422		-2.1445		-0.2038		C.ar		1		UNL1		0.1328
20		C		-5.4531		-3.3776		-0.3669		C.1		1		UNL1		0.2346
21		N		-6.0304		-4.3794		-0.4987		N.1		1		UNL1		-0.4790
22		C		-3.5454		-1.9190		-0.9009		C.ar		1		UNL1		-0.1458
23		C		-2.8555		-0.7233		-0.7347		C.ar		1		UNL1		-0.1846
24		N		-0.3420		0.7808		0.2929		N.ar		1		UNL1		-0.5226
25		C		4.0152		0.4505		-0.4802		C.ar		1		UNL1		-0.1597
26		C		5.3603		0.1072		-0.5435		C.ar		1		UNL1		-0.1526
27		H		5.3421		-2.6603		1.4416		H		1		UNL1		0.1614
28		H		2.9540		-2.0665		1.5655		H		1		UNL1		0.1410
29		H		1.2456		-0.7247		0.9983		H		1		UNL1		0.3511
30		H		0.9692		3.5390		-1.9829		H		1		UNL1		0.1628
31		H		-1.4732		3.4933		-1.3646		H		1		UNL1		0.1759
32		H		-3.2697		4.2835		1.7081		H		1		UNL1		0.3484
33		H		-1.7538		3.8433		1.0895		H		1		UNL1		0.3210
34		H		-4.9199		0.8074		1.4833		H		1		UNL1		0.1606
35		H		-6.1589		-1.3199		1.2023		H		1		UNL1		0.1584
36		H		-3.1637		-2.6810		-1.5729		H		1		UNL1		0.1577
37		H		-1.9342		-0.5706		-1.2844		H		1		UNL1		0.1438
38		H		3.6405		1.3128		-1.0121		H		1		UNL1		0.1886
39		H		6.0382		0.7147		-1.1347		H		1		UNL1		0.1603
@<TRIPOS>BOND
1		30		10		1
2		36		22		1
3		31		11		1
4		10		11		ar
5		10		9		ar
6		37		23		1
7		39		26		1
8		38		25		1
9		11		12		ar
10		22		23		ar
11		22		19		ar
12		9		8		ar
13		23		16		ar
14		26		25		ar
15		26		3		ar
16		21		20		3
17		25		6		ar
18		20		19		1
19		19		18		ar
20		12		13		1
21		12		24		ar
22		8		24		ar
23		8		7		1
24		1		2		3
25		2		3		1
26		16		13		1
27		16		17		ar
28		3		4		ar
29		6		7		1
30		6		5		ar
31		13		14		2
32		7		29		1
33		18		17		ar
34		18		35		1
35		17		34		1
36		14		15		1
37		4		5		ar
38		4		27		1
39		5		28		1
40		15		33		1
41		15		32		1

