@<TRIPOS>MOLECULE
MG-2014-EJMC-600-4-1h
 45 47 0 0 0
SMALL
MULLIKEN_CHARGES
****
Gaussian 16 #p B3LYP/6-31G* opt
@<TRIPOS>ATOM
1		C		2.3982		-4.1598		0.7423		C.3		1		UNL1		-0.4528
2		C		2.7180		-3.2600		-0.4612		C.3		1		UNL1		-0.1334
3		N		1.9015		-2.0511		-0.6015		N.3		1		UNL1		-0.5696
4		C		2.1089		-1.0212		0.4083		C.3		1		UNL1		-0.0985
5		C		3.3967		-0.2465		0.1416		C.ar		1		UNL1		0.1600
6		C		4.2642		0.0850		1.1885		C.ar		1		UNL1		-0.2022
7		C		5.4283		0.8130		0.9518		C.ar		1		UNL1		-0.1366
8		C		5.7415		1.2169		-0.3552		C.ar		1		UNL1		0.1283
9		C		6.9385		1.9647		-0.6097		C.1		1		UNL1		0.2388
10		N		7.9086		2.5731		-0.8154		N.1		1		UNL1		-0.4753
11		C		4.8797		0.8792		-1.4144		C.ar		1		UNL1		-0.1389
12		C		3.7219		0.1530		-1.1623		C.ar		1		UNL1		-0.1615
13		C		0.8773		-0.1048		0.4697		C.ar		1		UNL1		0.3444
14		C		0.9472		1.2324		0.8830		C.ar		1		UNL1		-0.2012
15		C		-0.2566		1.9216		0.9569		C.ar		1		UNL1		0.0706
16		N		-1.4402		1.3762		0.6550		N.ar		1		UNL1		-0.4758
17		C		-1.3983		0.0949		0.2690		C.ar		1		UNL1		0.7014
18		N		-2.5569		-0.5693		-0.0696		N.pl3		1		UNL1		-0.7654
19		C		-3.8958		-0.1723		-0.1045		C.ar		1		UNL1		0.3821
20		C		-4.8308		-1.1449		-0.5132		C.ar		1		UNL1		-0.2057
21		C		-6.1824		-0.8503		-0.5796		C.ar		1		UNL1		-0.1399
22		C		-6.6427		0.4335		-0.2374		C.ar		1		UNL1		0.1321
23		C		-8.0377		0.7453		-0.3029		C.1		1		UNL1		0.2284
24		N		-9.1730		0.9972		-0.3563		N.1		1		UNL1		-0.4826
25		C		-5.7110		1.4025		0.1692		C.ar		1		UNL1		-0.1529
26		C		-4.3537		1.1131		0.2379		C.ar		1		UNL1		-0.1593
27		N		-0.2911		-0.6709		0.1675		N.ar		1		UNL1		-0.5770
28		H		3.0446		-5.0453		0.7425		H		1		UNL1		0.1502
29		H		1.3575		-4.5049		0.7088		H		1		UNL1		0.1433
30		H		2.5494		-3.6439		1.6976		H		1		UNL1		0.1465
31		H		3.7710		-2.9548		-0.4305		H		1		UNL1		0.1481
32		H		2.5948		-3.8374		-1.3856		H		1		UNL1		0.1467
33		H		0.9097		-2.2787		-0.6224		H		1		UNL1		0.3199
34		H		2.1920		-1.4385		1.4321		H		1		UNL1		0.1477
35		H		4.0313		-0.2335		2.2020		H		1		UNL1		0.1418
36		H		6.0986		1.0637		1.7677		H		1		UNL1		0.1612
37		H		5.1279		1.1879		-2.4249		H		1		UNL1		0.1621
38		H		3.0608		-0.1317		-1.9744		H		1		UNL1		0.1654
39		H		1.8874		1.7105		1.1258		H		1		UNL1		0.1594
40		H		-0.2822		2.9640		1.2692		H		1		UNL1		0.1601
41		H		-2.3735		-1.5262		-0.3429		H		1		UNL1		0.3438
42		H		-4.4867		-2.1414		-0.7805		H		1		UNL1		0.1366
43		H		-6.8896		-1.6100		-0.8961		H		1		UNL1		0.1595
44		H		-6.0580		2.3961		0.4348		H		1		UNL1		0.1600
45		H		-3.6437		1.8644		0.5514		H		1		UNL1		0.1901
@<TRIPOS>BOND
1		37		11		1
2		38		12		1
3		11		12		ar
4		11		8		ar
5		32		2		1
6		12		5		ar
7		43		21		1
8		10		9		3
9		42		20		1
10		33		3		1
11		9		8		1
12		3		2		1
13		3		4		1
14		21		20		ar
15		21		22		ar
16		20		19		ar
17		2		31		1
18		2		1		1
19		24		23		3
20		8		7		ar
21		41		18		1
22		23		22		1
23		22		25		ar
24		19		18		1
25		19		26		ar
26		18		17		1
27		5		4		1
28		5		6		ar
29		27		17		ar
30		27		13		ar
31		25		26		ar
32		25		44		1
33		26		45		1
34		17		16		ar
35		4		13		1
36		4		34		1
37		13		14		ar
38		16		15		ar
39		29		1		1
40		1		28		1
41		1		30		1
42		14		15		ar
43		14		39		1
44		7		6		ar
45		7		36		1
46		15		40		1
47		6		35		1

