@<TRIPOS>MOLECULE
MG-2014-EJMC-600-4-1b
 40 42 0 0 0
SMALL
MULLIKEN_CHARGES
****
Gaussian 16 #p B3LYP/6-31G* opt
@<TRIPOS>ATOM
1		N		7.8323		-4.8220		-0.4105		N.1		1		UNL1		-0.4629
2		C		7.0787		-3.9331		-0.3258		C.1		1		UNL1		-0.0659
3		C		6.1968		-2.8928		-0.2262		C.1		1		UNL1		0.3890
4		C		5.4109		-1.9667		-0.1378		C.1		1		UNL1		0.0256
5		C		4.4958		-0.8853		-0.0334		C.ar		1		UNL1		0.0010
6		C		3.3488		-0.8379		-0.8483		C.ar		1		UNL1		-0.1355
7		C		2.4534		0.2184		-0.7379		C.ar		1		UNL1		-0.1748
8		C		2.6740		1.2580		0.1809		C.ar		1		UNL1		0.1502
9		C		1.7431		2.4110		0.2726		C.2		1		UNL1		0.2125
10		N		2.2392		3.4965		0.7640		N.2		1		UNL1		-0.2274
11		O		1.3170		4.5351		0.8713		O.2		1		UNL1		-0.4900
12		C		0.3207		2.2615		-0.1778		C.ar		1		UNL1		0.2668
13		C		-0.2927		3.1773		-1.0432		C.ar		1		UNL1		-0.1662
14		C		-1.6077		2.8990		-1.3967		C.ar		1		UNL1		0.0678
15		N		-2.2834		1.8375		-0.9444		N.ar		1		UNL1		-0.4717
16		C		-1.6058		1.0313		-0.1143		C.ar		1		UNL1		0.6947
17		N		-2.2082		-0.0859		0.4205		N.pl3		1		UNL1		-0.7685
18		C		-3.4919		-0.6205		0.2881		C.ar		1		UNL1		0.3813
19		C		-3.7599		-1.8016		1.0094		C.ar		1		UNL1		-0.2055
20		C		-5.0025		-2.4095		0.9438		C.ar		1		UNL1		-0.1400
21		C		-6.0205		-1.8516		0.1502		C.ar		1		UNL1		0.1322
22		C		-7.3072		-2.4737		0.0771		C.1		1		UNL1		0.2286
23		N		-8.3536		-2.9803		0.0183		N.1		1		UNL1		-0.4823
24		C		-5.7533		-0.6751		-0.5683		C.ar		1		UNL1		-0.1527
25		C		-4.5086		-0.0604		-0.5067		C.ar		1		UNL1		-0.1599
26		N		-0.3243		1.1859		0.2798		N.ar		1		UNL1		-0.5328
27		C		3.8214		1.2063		0.9938		C.ar		1		UNL1		-0.1666
28		C		4.7199		0.1555		0.8917		C.ar		1		UNL1		-0.1304
29		H		3.1701		-1.6322		-1.5658		H		1		UNL1		0.1586
30		H		1.5772		0.2349		-1.3759		H		1		UNL1		0.1499
31		H		1.8534		5.2459		1.2580		H		1		UNL1		0.4294
32		H		0.2255		4.0544		-1.4064		H		1		UNL1		0.1637
33		H		-2.1525		3.5542		-2.0739		H		1		UNL1		0.1611
34		H		-1.5775		-0.5924		1.0293		H		1		UNL1		0.3497
35		H		-2.9804		-2.2421		1.6268		H		1		UNL1		0.1394
36		H		-5.1934		-3.3184		1.5051		H		1		UNL1		0.1604
37		H		-6.5336		-0.2379		-1.1832		H		1		UNL1		0.1598
38		H		-4.3120		0.8447		-1.0626		H		1		UNL1		0.1889
39		H		3.9949		2.0016		1.7097		H		1		UNL1		0.1633
40		H		5.5981		0.1228		1.5285		H		1		UNL1		0.1589
@<TRIPOS>BOND
1		33		14		1
2		29		6		1
3		32		13		1
4		14		13		ar
5		14		15		ar
6		30		7		1
7		37		24		1
8		38		25		1
9		13		12		ar
10		15		16		ar
11		6		7		ar
12		6		5		ar
13		7		8		ar
14		24		25		ar
15		24		21		ar
16		25		18		ar
17		1		2		3
18		2		3		1
19		3		4		3
20		12		9		1
21		12		26		ar
22		4		5		1
23		16		26		ar
24		16		17		1
25		5		28		ar
26		23		22		3
27		22		21		1
28		21		20		ar
29		8		9		1
30		8		27		ar
31		9		10		2
32		18		17		1
33		18		19		ar
34		17		34		1
35		10		11		1
36		11		31		1
37		28		27		ar
38		28		40		1
39		20		19		ar
40		20		36		1
41		27		39		1
42		19		35		1

