@<TRIPOS>MOLECULE
MG-2014-EJMC-600-4-1r
 48 50 0 0 0
SMALL
MULLIKEN_CHARGES
****
Gaussian 16 #p B3LYP/6-31G* opt
@<TRIPOS>ATOM
1		C		-5.4066		-3.2334		-0.4133		C.3		1		UNL1		-0.4401
2		C		-5.6051		-1.8473		0.1824		C.3		1		UNL1		0.1337
3		O		-6.8989		-1.4061		-0.2257		O.3		1		UNL1		-0.6227
4		C		-4.5415		-0.8358		-0.2731		C.3		1		UNL1		-0.1361
5		N		-3.2119		-1.1919		0.2247		N.3		1		UNL1		-0.5643
6		C		-2.1318		-0.3068		-0.2243		C.3		1		UNL1		-0.1222
7		C		-0.7655		-0.9506		0.0146		C.ar		1		UNL1		0.3127
8		C		-0.6210		-2.2984		0.3660		C.ar		1		UNL1		-0.2094
9		C		0.6824		-2.7575		0.5202		C.ar		1		UNL1		0.0716
10		N		1.7625		-1.9893		0.3421		N.ar		1		UNL1		-0.4758
11		C		1.5087		-0.7197		-0.0072		C.ar		1		UNL1		0.6897
12		N		2.5464		0.1622		-0.2307		N.pl3		1		UNL1		-0.7671
13		C		3.9326		0.0217		-0.1739		C.ar		1		UNL1		0.3831
14		C		4.6974		1.1676		-0.4756		C.ar		1		UNL1		-0.2057
15		C		6.0812		1.1296		-0.4451		C.ar		1		UNL1		-0.1406
16		C		6.7483		-0.0622		-0.1100		C.ar		1		UNL1		0.1307
17		C		8.1778		-0.1089		-0.0752		C.1		1		UNL1		0.2268
18		N		9.3412		-0.1452		-0.0466		N.1		1		UNL1		-0.4857
19		C		5.9870		-1.2039		0.1898		C.ar		1		UNL1		-0.1533
20		C		4.5984		-1.1724		0.1611		C.ar		1		UNL1		-0.1606
21		N		0.2939		-0.1622		-0.1735		N.ar		1		UNL1		-0.5405
22		C		-2.2030		1.1036		0.3698		C.ar		1		UNL1		0.2125
23		C		-2.0149		1.2728		1.7508		C.ar		1		UNL1		-0.1869
24		C		-2.1273		2.5160		2.3650		C.ar		1		UNL1		-0.1273
25		C		-2.4373		3.6402		1.5966		C.ar		1		UNL1		-0.1274
26		C		-2.6271		3.5083		0.2239		C.ar		1		UNL1		-0.1263
27		C		-2.5091		2.2504		-0.3731		C.ar		1		UNL1		-0.1512
28		CL		-2.7516		2.1667		-2.1220		Cl		1		UNL1		-0.0177
29		H		-4.4177		-3.6223		-0.1556		H		1		UNL1		0.1540
30		H		-6.1730		-3.9201		-0.0410		H		1		UNL1		0.1554
31		H		-5.4904		-3.1852		-1.5048		H		1		UNL1		0.1538
32		H		-5.5639		-1.9224		1.2854		H		1		UNL1		0.1026
33		H		-7.0542		-0.5318		0.1657		H		1		UNL1		0.3878
34		H		-4.8597		0.1756		0.0448		H		1		UNL1		0.1137
35		H		-4.5114		-0.8263		-1.3689		H		1		UNL1		0.1610
36		H		-3.2309		-1.2059		1.2450		H		1		UNL1		0.2967
37		H		-2.2341		-0.2228		-1.3114		H		1		UNL1		0.1921
38		H		-1.4824		-2.9395		0.4937		H		1		UNL1		0.1644
39		H		0.8789		-3.7914		0.7996		H		1		UNL1		0.1544
40		H		2.2019		1.0796		-0.4849		H		1		UNL1		0.3483
41		H		4.1926		2.0949		-0.7366		H		1		UNL1		0.1372
42		H		6.6547		2.0204		-0.6800		H		1		UNL1		0.1573
43		H		6.4937		-2.1283		0.4490		H		1		UNL1		0.1574
44		H		4.0200		-2.0548		0.3931		H		1		UNL1		0.1885
45		H		-1.7576		0.4029		2.3521		H		1		UNL1		0.1335
46		H		-1.9690		2.6090		3.4355		H		1		UNL1		0.1408
47		H		-2.5285		4.6181		2.0605		H		1		UNL1		0.1438
48		H		-2.8654		4.3699		-0.3906		H		1		UNL1		0.1577
@<TRIPOS>BOND
1		28		27		1
2		31		1		1
3		35		4		1
4		37		6		1
5		41		14		1
6		42		15		1
7		40		12		1
8		14		15		ar
9		14		13		ar
10		15		16		ar
11		1		29		1
12		1		30		1
13		1		2		1
14		48		26		1
15		27		26		ar
16		27		22		ar
17		4		34		1
18		4		2		1
19		4		5		1
20		12		13		1
21		12		11		1
22		3		33		1
23		3		2		1
24		6		7		1
25		6		5		1
26		6		22		1
27		13		20		ar
28		21		11		ar
29		21		7		ar
30		16		17		1
31		16		19		ar
32		17		18		3
33		11		10		ar
34		7		8		ar
35		20		19		ar
36		20		44		1
37		2		32		1
38		19		43		1
39		26		25		ar
40		5		36		1
41		10		9		ar
42		8		38		1
43		8		9		ar
44		22		23		ar
45		9		39		1
46		25		47		1
47		25		24		ar
48		23		45		1
49		23		24		ar
50		24		46		1

