@<TRIPOS>MOLECULE
MG-2014-EJMC-600-4-1m
 47 49 0 0 0
SMALL
MULLIKEN_CHARGES
****
Gaussian 16 #p B3LYP/6-31G* opt
@<TRIPOS>ATOM
1		C		3.8262		4.7982		-0.3890		C.3		1		UNL1		-0.4446
2		C		2.8253		3.6379		-0.4069		C.3		1		UNL1		-0.2606
3		C		3.1628		2.5529		0.6330		C.3		1		UNL1		-0.1296
4		N		2.2600		1.4067		0.6931		N.3		1		UNL1		-0.5572
5		C		2.3377		0.4662		-0.4123		C.3		1		UNL1		-0.1203
6		C		0.9913		-0.2217		-0.6545		C.ar		1		UNL1		0.3543
7		C		0.8894		-1.3894		-1.4256		C.ar		1		UNL1		-0.1914
8		C		-0.3905		-1.8744		-1.6478		C.ar		1		UNL1		0.0694
9		N		-1.4960		-1.2905		-1.1660		N.ar		1		UNL1		-0.4798
10		C		-1.2889		-0.1839		-0.4444		C.ar		1		UNL1		0.7035
11		N		-2.3525		0.5003		0.1062		N.pl3		1		UNL1		-0.7667
12		C		-3.7297		0.2776		0.0811		C.ar		1		UNL1		0.3832
13		C		-4.3502		-0.7927		-0.5897		C.ar		1		UNL1		-0.1594
14		C		-5.7331		-0.9210		-0.5532		C.ar		1		UNL1		-0.1533
15		C		-6.5323		0.0003		0.1433		C.ar		1		UNL1		0.1311
16		C		-7.9556		-0.1437		0.1715		C.1		1		UNL1		0.2272
17		N		-9.1138		-0.2593		0.1949		N.1		1		UNL1		-0.4851
18		C		-5.9101		1.0686		0.8135		C.ar		1		UNL1		-0.1403
19		C		-4.5322		1.2021		0.7809		C.ar		1		UNL1		-0.2057
20		N		-0.0931		0.3828		-0.1747		N.ar		1		UNL1		-0.5827
21		C		3.4919		-0.5194		-0.2230		C.ar		1		UNL1		0.1970
22		C		4.5565		-0.5019		-1.1344		C.ar		1		UNL1		-0.2039
23		C		5.6597		-1.3458		-1.0039		C.ar		1		UNL1		-0.1249
24		C		5.7170		-2.2389		0.0638		C.ar		1		UNL1		-0.1254
25		C		4.6719		-2.2840		0.9867		C.ar		1		UNL1		-0.1296
26		C		3.5760		-1.4336		0.8410		C.ar		1		UNL1		-0.1157
27		CL		2.2890		-1.5702		2.0309		Cl		1		UNL1		-0.0049
28		H		4.8404		4.4513		-0.6226		H		1		UNL1		0.1437
29		H		3.5610		5.5680		-1.1219		H		1		UNL1		0.1464
30		H		3.8611		5.2761		0.5978		H		1		UNL1		0.1455
31		H		1.8133		4.0179		-0.2071		H		1		UNL1		0.1302
32		H		2.7940		3.1986		-1.4135		H		1		UNL1		0.1312
33		H		4.1795		2.1765		0.4584		H		1		UNL1		0.1402
34		H		3.1788		3.0112		1.6311		H		1		UNL1		0.1413
35		H		1.2912		1.6883		0.8206		H		1		UNL1		0.3196
36		H		2.5448		0.9780		-1.3732		H		1		UNL1		0.1480
37		H		1.7645		-1.8910		-1.8200		H		1		UNL1		0.1549
38		H		-0.5510		-2.7753		-2.2372		H		1		UNL1		0.1555
39		H		-2.0445		1.3075		0.6330		H		1		UNL1		0.3439
40		H		-3.7420		-1.5060		-1.1266		H		1		UNL1		0.1898
41		H		-6.2051		-1.7490		-1.0727		H		1		UNL1		0.1581
42		H		-6.5134		1.7886		1.3568		H		1		UNL1		0.1578
43		H		-4.0624		2.0322		1.3034		H		1		UNL1		0.1361
44		H		4.5138		0.1996		-1.9647		H		1		UNL1		0.1356
45		H		6.4669		-1.3003		-1.7291		H		1		UNL1		0.1384
46		H		6.5686		-2.9024		0.1847		H		1		UNL1		0.1422
47		H		4.6980		-2.9769		1.8211		H		1		UNL1		0.1569
@<TRIPOS>BOND
1		38		8		1
2		44		22		1
3		37		7		1
4		45		23		1
5		8		7		ar
6		8		9		ar
7		7		6		ar
8		32		2		1
9		36		5		1
10		9		10		ar
11		22		23		ar
12		22		21		ar
13		40		13		1
14		29		1		1
15		41		14		1
16		23		24		ar
17		6		5		1
18		6		20		ar
19		28		1		1
20		13		14		ar
21		13		12		ar
22		14		15		ar
23		10		20		ar
24		10		11		1
25		5		21		1
26		5		4		1
27		2		1		1
28		2		31		1
29		2		3		1
30		1		30		1
31		21		26		ar
32		24		46		1
33		24		25		ar
34		12		11		1
35		12		19		ar
36		11		39		1
37		15		16		1
38		15		18		ar
39		16		17		3
40		33		3		1
41		3		4		1
42		3		34		1
43		4		35		1
44		19		18		ar
45		19		43		1
46		18		42		1
47		26		25		ar
48		26		27		1
49		25		47		1

