@<TRIPOS>MOLECULE
MG-2014-EJMC-600-4-1o
 50 52 0 0 0
SMALL
MULLIKEN_CHARGES
****
Gaussian 16 #p B3LYP/6-31G* opt
@<TRIPOS>ATOM
1		C		0.0697		3.7334		0.9755		C.3		1		UNL1		-0.4259
2		C		1.4618		3.3375		0.4577		C.3		1		UNL1		0.0597
3		C		2.3246		4.5934		0.2814		C.3		1		UNL1		-0.4839
4		N		1.3602		2.6344		-0.8379		N.3		1		UNL1		-0.5746
5		C		1.3653		1.1742		-0.9144		C.3		1		UNL1		-0.0980
6		C		2.6939		0.4480		-0.6358		C.ar		1		UNL1		0.1532
7		C		2.7605		-0.9440		-0.8215		C.ar		1		UNL1		-0.1795
8		C		3.9470		-1.6414		-0.6439		C.ar		1		UNL1		-0.1282
9		C		5.1212		-0.9555		-0.2696		C.ar		1		UNL1		-0.0054
10		C		6.3411		-1.6601		-0.0818		C.1		1		UNL1		0.0270
11		C		7.3858		-2.2644		0.0802		C.1		1		UNL1		0.3868
12		C		8.5597		-2.9419		0.2624		C.1		1		UNL1		-0.0660
13		N		9.5628		-3.5203		0.4185		N.1		1		UNL1		-0.4633
14		C		5.0644		0.4380		-0.0903		C.ar		1		UNL1		-0.1304
15		C		3.8658		1.1222		-0.2770		C.ar		1		UNL1		-0.1996
16		C		0.2083		0.5807		-0.1044		C.ar		1		UNL1		0.3253
17		C		0.3484		0.1371		1.2181		C.ar		1		UNL1		-0.1931
18		C		-0.7998		-0.3443		1.8364		C.ar		1		UNL1		0.0671
19		N		-1.9904		-0.4042		1.2311		N.ar		1		UNL1		-0.4727
20		C		-2.0120		0.0325		-0.0369		C.ar		1		UNL1		0.6885
21		N		-3.1834		0.0078		-0.7622		N.pl3		1		UNL1		-0.7645
22		C		-4.4781		-0.4112		-0.4512		C.ar		1		UNL1		0.3822
23		C		-4.8631		-0.9504		0.7902		C.ar		1		UNL1		-0.1601
24		C		-6.1814		-1.3384		0.9949		C.ar		1		UNL1		-0.1529
25		C		-7.1458		-1.2035		-0.0172		C.ar		1		UNL1		0.1317
26		C		-8.5000		-1.6073		0.2076		C.1		1		UNL1		0.2279
27		N		-9.6021		-1.9355		0.3891		N.1		1		UNL1		-0.4835
28		C		-6.7587		-0.6641		-1.2568		C.ar		1		UNL1		-0.1402
29		C		-5.4463		-0.2756		-1.4670		C.ar		1		UNL1		-0.2054
30		N		-0.9650		0.5199		-0.7348		N.ar		1		UNL1		-0.5390
31		H		0.1487		4.2392		1.9456		H		1		UNL1		0.1343
32		H		-0.4136		4.4130		0.2650		H		1		UNL1		0.1496
33		H		-0.5801		2.8644		1.1010		H		1		UNL1		0.1514
34		H		1.9437		2.6951		1.2125		H		1		UNL1		0.1218
35		H		3.3550		4.3518		-0.0075		H		1		UNL1		0.1480
36		H		1.8975		5.2393		-0.4959		H		1		UNL1		0.1576
37		H		2.3647		5.1706		1.2105		H		1		UNL1		0.1592
38		H		2.0174		3.0095		-1.5143		H		1		UNL1		0.3072
39		H		1.1070		0.9460		-1.9567		H		1		UNL1		0.1739
40		H		1.8661		-1.4890		-1.1133		H		1		UNL1		0.1482
41		H		3.9813		-2.7159		-0.7941		H		1		UNL1		0.1585
42		H		5.9635		0.9765		0.1925		H		1		UNL1		0.1565
43		H		3.8499		2.1981		-0.1464		H		1		UNL1		0.1426
44		H		1.3006		0.1618		1.7335		H		1		UNL1		0.1563
45		H		-0.7723		-0.7011		2.8646		H		1		UNL1		0.1587
46		H		-3.0481		0.3781		-1.6947		H		1		UNL1		0.3484
47		H		-4.1278		-1.0566		1.5745		H		1		UNL1		0.1886
48		H		-6.4718		-1.7536		1.9548		H		1		UNL1		0.1590
49		H		-7.4921		-0.5531		-2.0489		H		1		UNL1		0.1590
50		H		-5.1587		0.1405		-2.4298		H		1		UNL1		0.1380
@<TRIPOS>BOND
1		50		29		1
2		49		28		1
3		39		5		1
4		46		21		1
5		38		4		1
6		29		28		ar
7		29		22		ar
8		28		25		ar
9		40		7		1
10		5		4		1
11		5		6		1
12		5		16		1
13		4		2		1
14		7		8		ar
15		7		6		ar
16		41		8		1
17		21		22		1
18		21		20		1
19		30		16		ar
20		30		20		ar
21		8		9		ar
22		6		15		ar
23		36		3		1
24		22		23		ar
25		15		43		1
26		15		14		ar
27		9		14		ar
28		9		10		1
29		16		17		ar
30		14		42		1
31		10		11		3
32		20		19		ar
33		25		26		1
34		25		24		ar
35		35		3		1
36		11		12		1
37		26		27		3
38		12		13		3
39		32		1		1
40		3		2		1
41		3		37		1
42		2		1		1
43		2		34		1
44		23		24		ar
45		23		47		1
46		1		33		1
47		1		31		1
48		24		48		1
49		17		44		1
50		17		18		ar
51		19		18		ar
52		18		45		1

