@<TRIPOS>MOLECULE
MG-2014-EJMC-600-4-1e
 42 44 0 0 0
SMALL
MULLIKEN_CHARGES
****
Gaussian 16 #p B3LYP/6-31G* opt
@<TRIPOS>ATOM
1		C		-2.0712		-1.8182		2.5105		C.3		1		UNL1		-0.3075
2		N		-2.8062		-2.4204		1.3960		N.3		1		UNL1		-0.5457
3		C		-2.6371		-1.8269		0.0588		C.3		1		UNL1		-0.1068
4		C		-3.3390		-0.4716		-0.0475		C.ar		1		UNL1		0.1652
5		C		-2.9526		0.4869		-0.9941		C.ar		1		UNL1		-0.1737
6		C		-3.6571		1.6783		-1.1353		C.ar		1		UNL1		-0.1486
7		C		-4.7720		1.9354		-0.3216		C.ar		1		UNL1		0.1321
8		C		-5.4974		3.1647		-0.4577		C.1		1		UNL1		0.2361
9		N		-6.0857		4.1624		-0.5674		N.1		1		UNL1		-0.4778
10		C		-5.1709		0.9778		0.6247		C.ar		1		UNL1		-0.1393
11		C		-4.4605		-0.2114		0.7519		C.ar		1		UNL1		-0.1824
12		C		-1.1816		-1.8298		-0.4064		C.ar		1		UNL1		0.3266
13		C		-0.7068		-2.8317		-1.2666		C.ar		1		UNL1		-0.2247
14		C		0.6491		-2.8049		-1.5697		C.ar		1		UNL1		0.0743
15		N		1.4914		-1.8892		-1.0797		N.ar		1		UNL1		-0.4744
16		C		0.9402		-0.9780		-0.2646		C.ar		1		UNL1		0.6849
17		N		1.7157		0.0124		0.2968		N.pl3		1		UNL1		-0.7643
18		C		3.0771		0.3117		0.2067		C.ar		1		UNL1		0.3811
19		C		3.5252		1.4331		0.9339		C.ar		1		UNL1		-0.2056
20		C		4.8574		1.8109		0.9111		C.ar		1		UNL1		-0.1400
21		C		5.7873		1.0745		0.1560		C.ar		1		UNL1		0.1321
22		C		7.1658		1.4577		0.1278		C.1		1		UNL1		0.2285
23		N		8.2871		1.7697		0.1058		N.1		1		UNL1		-0.4826
24		C		5.3407		-0.0424		-0.5688		C.ar		1		UNL1		-0.1529
25		C		4.0055		-0.4264		-0.5501		C.ar		1		UNL1		-0.1597
26		N		-0.3600		-0.9026		0.0922		N.ar		1		UNL1		-0.5361
27		H		-0.9763		-1.8791		2.4301		H		1		UNL1		0.1445
28		H		-2.3393		-0.7613		2.5928		H		1		UNL1		0.1662
29		H		-2.3837		-2.3206		3.4320		H		1		UNL1		0.1537
30		H		-2.6009		-3.4150		1.3430		H		1		UNL1		0.3051
31		H		-3.1755		-2.5081		-0.6157		H		1		UNL1		0.1646
32		H		-2.0905		0.3099		-1.6279		H		1		UNL1		0.1426
33		H		-3.3478		2.4142		-1.8706		H		1		UNL1		0.1586
34		H		-6.0358		1.1704		1.2515		H		1		UNL1		0.1586
35		H		-4.7695		-0.9583		1.4751		H		1		UNL1		0.1668
36		H		-1.3652		-3.5861		-1.6835		H		1		UNL1		0.1460
37		H		1.0883		-3.5431		-2.2387		H		1		UNL1		0.1585
38		H		1.1636		0.6302		0.8787		H		1		UNL1		0.3487
39		H		2.8151		2.0105		1.5213		H		1		UNL1		0.1393
40		H		5.1867		2.6768		1.4762		H		1		UNL1		0.1602
41		H		6.0520		-0.6160		-1.1546		H		1		UNL1		0.1594
42		H		3.6701		-1.2864		-1.1112		H		1		UNL1		0.1886
@<TRIPOS>BOND
1		37		14		1
2		33		6		1
3		36		13		1
4		32		5		1
5		14		13		ar
6		14		15		ar
7		13		12		ar
8		41		24		1
9		6		5		ar
10		6		7		ar
11		42		25		1
12		15		16		ar
13		5		4		ar
14		31		3		1
15		24		25		ar
16		24		21		ar
17		9		8		3
18		25		18		ar
19		8		7		1
20		12		3		1
21		12		26		ar
22		7		10		ar
23		16		26		ar
24		16		17		1
25		4		3		1
26		4		11		ar
27		3		2		1
28		23		22		3
29		22		21		1
30		21		20		ar
31		18		17		1
32		18		19		ar
33		17		38		1
34		10		11		ar
35		10		34		1
36		11		35		1
37		20		19		ar
38		20		40		1
39		19		39		1
40		30		2		1
41		2		1		1
42		27		1		1
43		1		28		1
44		1		29		1

