@<TRIPOS>MOLECULE
MG-2014-EJMC-600-2XING
 48 51 0 0 0
SMALL
MULLIKEN_CHARGES
****
Gaussian 16 #p B3LYP/6-31G* opt
@<TRIPOS>ATOM
1		N		-9.5341		3.1562		-1.1317		N.1		1		UNL1		-0.4638
2		C		-8.5254		2.6161		-0.8949		C.1		1		UNL1		-0.0659
3		C		-7.3447		1.9843		-0.6170		C.1		1		UNL1		0.3880
4		C		-6.2935		1.4219		-0.3689		C.1		1		UNL1		0.0246
5		C		-5.0655		0.7673		-0.0792		C.ar		1		UNL1		-0.0047
6		C		-4.7408		0.4140		1.2435		C.ar		1		UNL1		-0.1275
7		C		-3.5356		-0.2280		1.5166		C.ar		1		UNL1		-0.2002
8		C		-2.6318		-0.5298		0.4923		C.ar		1		UNL1		0.1888
9		C		-1.2994		-1.2076		0.7958		C.3		1		UNL1		-0.1068
10		N		-1.0403		-2.3181		-0.1150		N.3		1		UNL1		-0.5827
11		C		-1.6649		-3.5604		0.2638		C.3		1		UNL1		0.0254
12		C		-3.0232		-3.9019		-0.3001		C.3		1		UNL1		-0.3043
13		C		-1.7929		-4.6233		-0.7947		C.3		1		UNL1		-0.3266
14		C		-0.1284		-0.2127		0.7608		C.ar		1		UNL1		0.3439
15		C		-0.2681		1.1258		1.1530		C.ar		1		UNL1		-0.1993
16		C		0.8861		1.8980		1.1406		C.ar		1		UNL1		0.0706
17		N		2.0847		1.4298		0.7741		N.ar		1		UNL1		-0.4757
18		C		2.1108		0.1411		0.4134		C.ar		1		UNL1		0.7019
19		N		3.2895		-0.4481		0.0130		N.pl3		1		UNL1		-0.7653
20		C		4.5921		0.0410		-0.1152		C.ar		1		UNL1		0.3817
21		C		5.5664		-0.8730		-0.5648		C.ar		1		UNL1		-0.2057
22		C		6.8865		-0.4858		-0.7241		C.ar		1		UNL1		-0.1398
23		C		7.2743		0.8349		-0.4368		C.ar		1		UNL1		0.1323
24		C		8.6365		1.2425		-0.5984		C.1		1		UNL1		0.2287
25		N		9.7451		1.5724		-0.7300		N.1		1		UNL1		-0.4821
26		C		6.3033		1.7454		0.0109		C.ar		1		UNL1		-0.1528
27		C		4.9773		1.3630		0.1727		C.ar		1		UNL1		-0.1592
28		N		1.0558		-0.7024		0.3966		N.ar		1		UNL1		-0.5814
29		C		-2.9608		-0.1825		-0.8261		C.ar		1		UNL1		-0.1675
30		C		-4.1580		0.4583		-1.1149		C.ar		1		UNL1		-0.1304
31		H		-5.4386		0.6390		2.0438		H		1		UNL1		0.1572
32		H		-3.2993		-0.5056		2.5412		H		1		UNL1		0.1415
33		H		-1.3444		-1.5550		1.8483		H		1		UNL1		0.1475
34		H		-0.0311		-2.4320		-0.1911		H		1		UNL1		0.3273
35		H		-1.4700		-3.9115		1.2841		H		1		UNL1		0.1256
36		H		-3.4789		-3.1766		-0.9657		H		1		UNL1		0.1638
37		H		-3.7210		-4.4398		0.3356		H		1		UNL1		0.1507
38		H		-1.4330		-4.3711		-1.7879		H		1		UNL1		0.1600
39		H		-1.6397		-5.6588		-0.5045		H		1		UNL1		0.1528
40		H		-1.2240		1.5418		1.4448		H		1		UNL1		0.1588
41		H		0.8574		2.9458		1.4341		H		1		UNL1		0.1606
42		H		3.1583		-1.4215		-0.2304		H		1		UNL1		0.3448
43		H		5.2783		-1.8972		-0.7903		H		1		UNL1		0.1374
44		H		7.6250		-1.2011		-1.0711		H		1		UNL1		0.1600
45		H		6.5944		2.7669		0.2346		H		1		UNL1		0.1603
46		H		4.2366		2.0697		0.5174		H		1		UNL1		0.1901
47		H		-2.2706		-0.4404		-1.6232		H		1		UNL1		0.1595
48		H		-4.4070		0.7253		-2.1371		H		1		UNL1		0.1578
@<TRIPOS>BOND
1		48		30		1
2		38		13		1
3		47		29		1
4		1		2		3
5		30		29		ar
6		30		5		ar
7		44		22		1
8		36		12		1
9		2		3		1
10		29		8		ar
11		13		39		1
12		13		12		1
13		13		11		1
14		43		21		1
15		25		24		3
16		22		21		ar
17		22		23		ar
18		3		4		3
19		24		23		1
20		21		20		ar
21		23		26		ar
22		4		5		1
23		12		11		1
24		12		37		1
25		42		19		1
26		34		10		1
27		20		19		1
28		20		27		ar
29		10		11		1
30		10		9		1
31		5		6		ar
32		26		27		ar
33		26		45		1
34		19		18		1
35		27		46		1
36		11		35		1
37		28		18		ar
38		28		14		ar
39		18		17		ar
40		8		9		1
41		8		7		ar
42		14		9		1
43		14		15		ar
44		17		16		ar
45		9		33		1
46		16		15		ar
47		16		41		1
48		15		40		1
49		6		7		ar
50		6		31		1
51		7		32		1

