@<TRIPOS>MOLECULE
MG-2014-EJMC-600-4-1d
 41 43 0 0 0
SMALL
MULLIKEN_CHARGES
****
Gaussian 16 #p B3LYP/6-31G* opt
@<TRIPOS>ATOM
1		N		-10.3312		-2.0034		-0.5393		N.1		1		UNL1		-0.4658
2		C		-9.2417		-1.5898		-0.4518		C.1		1		UNL1		-0.0689
3		C		-7.9669		-1.1066		-0.3490		C.1		1		UNL1		0.3840
4		C		-6.8306		-0.6768		-0.2575		C.1		1		UNL1		0.0271
5		C		-5.5066		-0.1752		-0.1504		C.ar		1		UNL1		-0.0048
6		C		-4.4247		-0.8850		-0.7063		C.ar		1		UNL1		-0.1322
7		C		-3.1306		-0.3920		-0.5934		C.ar		1		UNL1		-0.1918
8		C		-2.8672		0.8171		0.0762		C.ar		1		UNL1		0.1243
9		C		-1.4936		1.3851		0.1583		C.2		1		UNL1		0.1565
10		N		-1.4454		2.6875		0.0660		N.2		1		UNL1		-0.2929
11		N		-0.3073		3.3717		0.1461		N.pl3		1		UNL1		-0.5359
12		C		-0.3283		0.4910		0.3688		C.ar		1		UNL1		0.3418
13		C		-0.4617		-0.7608		1.0019		C.ar		1		UNL1		-0.2118
14		C		0.6966		-1.4977		1.1937		C.ar		1		UNL1		0.0704
15		N		1.9085		-1.0903		0.7965		N.ar		1		UNL1		-0.4792
16		C		1.9427		0.1100		0.2059		C.ar		1		UNL1		0.7185
17		N		3.1393		0.6216		-0.2483		N.pl3		1		UNL1		-0.7701
18		C		4.4476		0.1283		-0.2188		C.ar		1		UNL1		0.3814
19		C		5.4354		0.9323		-0.8223		C.ar		1		UNL1		-0.2064
20		C		6.7623		0.5362		-0.8427		C.ar		1		UNL1		-0.1394
21		C		7.1435		-0.6834		-0.2565		C.ar		1		UNL1		0.1327
22		C		8.5126		-1.0998		-0.2734		C.1		1		UNL1		0.2292
23		N		9.6267		-1.4367		-0.2880		N.1		1		UNL1		-0.4810
24		C		6.1593		-1.4845		0.3447		C.ar		1		UNL1		-0.1527
25		C		4.8263		-1.0925		0.3684		C.ar		1		UNL1		-0.1582
26		N		0.8888		0.9245		-0.0129		N.ar		1		UNL1		-0.6237
27		C		-3.9551		1.5240		0.6216		C.ar		1		UNL1		-0.1612
28		C		-5.2512		1.0425		0.5138		C.ar		1		UNL1		-0.1321
29		H		-4.6111		-1.8149		-1.2341		H		1		UNL1		0.1556
30		H		-2.3156		-0.9453		-1.0497		H		1		UNL1		0.1469
31		H		-0.4069		4.3352		-0.1401		H		1		UNL1		0.3484
32		H		0.5628		2.8822		-0.0524		H		1		UNL1		0.3590
33		H		-1.4209		-1.1241		1.3455		H		1		UNL1		0.1683
34		H		0.6626		-2.4650		1.6917		H		1		UNL1		0.1618
35		H		3.0223		1.5157		-0.7062		H		1		UNL1		0.3409
36		H		5.1530		1.8780		-1.2796		H		1		UNL1		0.1354
37		H		7.5109		1.1665		-1.3116		H		1		UNL1		0.1606
38		H		6.4451		-2.4277		0.7995		H		1		UNL1		0.1613
39		H		4.0755		-1.7160		0.8310		H		1		UNL1		0.1909
40		H		-3.7646		2.4622		1.1310		H		1		UNL1		0.1570
41		H		-6.0783		1.5960		0.9471		H		1		UNL1		0.1562
@<TRIPOS>BOND
1		37		20		1
2		36		19		1
3		29		6		1
4		30		7		1
5		20		19		ar
6		20		21		ar
7		19		18		ar
8		6		7		ar
9		6		5		ar
10		35		17		1
11		7		8		ar
12		1		2		3
13		2		3		1
14		3		4		3
15		23		22		3
16		22		21		1
17		4		5		1
18		21		24		ar
19		17		18		1
20		17		16		1
21		18		25		ar
22		5		28		ar
23		31		11		1
24		32		11		1
25		26		16		ar
26		26		12		ar
27		10		11		1
28		10		9		2
29		8		9		1
30		8		27		ar
31		9		12		1
32		16		15		ar
33		24		25		ar
34		24		38		1
35		25		39		1
36		12		13		ar
37		28		27		ar
38		28		41		1
39		27		40		1
40		15		14		ar
41		13		14		ar
42		13		33		1
43		14		34		1

