@<TRIPOS>MOLECULE
MG-2014-EJMC-600-4-1g
 41 43 0 0 0
SMALL
MULLIKEN_CHARGES
****
Gaussian 16 #p B3LYP/6-31G* opt
@<TRIPOS>ATOM
1		C		-3.6317		-2.6623		2.0151		C.3		1		UNL1		-0.3119
2		N		-3.7463		-1.6721		0.9473		N.3		1		UNL1		-0.5526
3		C		-2.7456		-0.6076		1.0297		C.3		1		UNL1		-0.0910
4		C		-1.4062		-1.0340		0.4177		C.ar		1		UNL1		0.3326
5		C		-1.2686		-2.1481		-0.4166		C.ar		1		UNL1		-0.1888
6		C		0.0154		-2.4175		-0.8741		C.ar		1		UNL1		0.0679
7		N		1.0825		-1.6730		-0.5603		N.ar		1		UNL1		-0.4777
8		C		0.8351		-0.6288		0.2420		C.ar		1		UNL1		0.6887
9		N		1.8619		0.2119		0.6275		N.pl3		1		UNL1		-0.7661
10		C		3.2261		0.2253		0.3435		C.ar		1		UNL1		0.3841
11		C		3.9838		1.2644		0.9232		C.ar		1		UNL1		-0.2059
12		C		5.3469		1.3627		0.7013		C.ar		1		UNL1		-0.1407
13		C		6.0007		0.4199		-0.1121		C.ar		1		UNL1		0.1301
14		C		7.4089		0.5150		-0.3455		C.1		1		UNL1		0.2261
15		N		8.5551		0.5938		-0.5341		N.1		1		UNL1		-0.4869
16		C		5.2466		-0.6150		-0.6899		C.ar		1		UNL1		-0.1535
17		C		3.8788		-0.7193		-0.4713		C.ar		1		UNL1		-0.1606
18		N		-0.3596		-0.2782		0.7563		N.ar		1		UNL1		-0.5491
19		C		-3.2483		0.7108		0.4404		C.ar		1		UNL1		0.1529
20		C		-3.2388		1.8432		1.2706		C.ar		1		UNL1		-0.1807
21		C		-3.6792		3.0902		0.8347		C.ar		1		UNL1		-0.1261
22		C		-4.1503		3.2362		-0.4691		C.ar		1		UNL1		-0.1230
23		C		-4.1723		2.1345		-1.3207		C.ar		1		UNL1		-0.1263
24		C		-3.7247		0.8904		-0.8701		C.ar		1		UNL1		-0.1279
25		CL		-3.7849		-0.4303		-2.0337		Cl		1		UNL1		-0.0055
26		H		-3.6542		-2.2302		3.0326		H		1		UNL1		0.1292
27		H		-2.6907		-3.2129		1.9096		H		1		UNL1		0.1597
28		H		-4.4503		-3.3829		1.9258		H		1		UNL1		0.1588
29		H		-4.6743		-1.2588		0.9586		H		1		UNL1		0.3115
30		H		-2.5028		-0.3785		2.0821		H		1		UNL1		0.1405
31		H		-2.1268		-2.7487		-0.6862		H		1		UNL1		0.1745
32		H		0.2087		-3.2683		-1.5254		H		1		UNL1		0.1533
33		H		1.5247		0.9549		1.2262		H		1		UNL1		0.3439
34		H		3.4895		1.9998		1.5540		H		1		UNL1		0.1342
35		H		5.9148		2.1686		1.1550		H		1		UNL1		0.1559
36		H		5.7427		-1.3470		-1.3195		H		1		UNL1		0.1568
37		H		3.3054		-1.5178		-0.9195		H		1		UNL1		0.1891
38		H		-2.8696		1.7323		2.2863		H		1		UNL1		0.1417
39		H		-3.6551		3.9397		1.5109		H		1		UNL1		0.1402
40		H		-4.4996		4.2002		-0.8278		H		1		UNL1		0.1440
41		H		-4.5324		2.2278		-2.3397		H		1		UNL1		0.1586
@<TRIPOS>BOND
1		41		23		1
2		25		24		1
3		32		6		1
4		23		24		ar
5		23		22		ar
6		36		16		1
7		37		17		1
8		6		7		ar
9		6		5		ar
10		24		19		ar
11		40		22		1
12		16		17		ar
13		16		13		ar
14		31		5		1
15		7		8		ar
16		15		14		3
17		17		10		ar
18		22		21		ar
19		5		4		ar
20		14		13		1
21		13		12		ar
22		8		9		1
23		8		18		ar
24		10		9		1
25		10		11		ar
26		4		18		ar
27		4		3		1
28		19		3		1
29		19		20		ar
30		9		33		1
31		12		11		ar
32		12		35		1
33		21		20		ar
34		21		39		1
35		11		34		1
36		2		29		1
37		2		3		1
38		2		1		1
39		3		30		1
40		20		38		1
41		27		1		1
42		28		1		1
43		1		26		1

