@<TRIPOS>MOLECULE
MG-2014-EJMC-600-4-1j
 44 46 0 0 0
SMALL
MULLIKEN_CHARGES
****
Gaussian 16 #p B3LYP/6-31G* opt
@<TRIPOS>ATOM
1		C		5.9664		-0.6450		-0.6098		C.3		1		UNL1		-0.4544
2		C		4.9680		-1.7727		-0.9129		C.3		1		UNL1		-0.1255
3		N		3.6703		-1.7273		-0.2353		N.3		1		UNL1		-0.5605
4		C		2.6652		-0.7906		-0.7257		C.3		1		UNL1		-0.1329
5		C		1.2514		-1.2767		-0.3735		C.ar		1		UNL1		0.3305
6		C		0.9951		-2.5998		0.0077		C.ar		1		UNL1		-0.1924
7		C		-0.3345		-2.9255		0.2406		C.ar		1		UNL1		0.0702
8		N		-1.3430		-2.0533		0.1162		N.ar		1		UNL1		-0.4776
9		C		-0.9844		-0.8192		-0.2599		C.ar		1		UNL1		0.6911
10		N		-1.9394		0.1656		-0.4240		N.pl3		1		UNL1		-0.7672
11		C		-3.3246		0.1689		-0.2739		C.ar		1		UNL1		0.3842
12		C		-4.0865		-0.9527		0.1054		C.ar		1		UNL1		-0.1606
13		C		-5.4660		-0.8423		0.2245		C.ar		1		UNL1		-0.1536
14		C		-6.1248		0.3728		-0.0268		C.ar		1		UNL1		0.1301
15		C		-7.5463		0.4720		0.0993		C.1		1		UNL1		0.2260
16		N		-8.7033		0.5546		0.2011		N.1		1		UNL1		-0.4871
17		C		-5.3620		1.4923		-0.4052		C.ar		1		UNL1		-0.1408
18		C		-3.9866		1.3889		-0.5257		C.ar		1		UNL1		-0.2059
19		N		0.2672		-0.3891		-0.5144		N.ar		1		UNL1		-0.5505
20		C		2.8599		0.6942		-0.3883		C.ar		1		UNL1		0.2335
21		C		3.0427		1.6146		-1.4297		C.ar		1		UNL1		-0.2007
22		C		3.2537		2.9719		-1.1919		C.ar		1		UNL1		-0.1226
23		C		3.2836		3.4468		0.1186		C.ar		1		UNL1		-0.1288
24		C		3.0966		2.5604		1.1785		C.ar		1		UNL1		-0.1253
25		C		2.8865		1.2080		0.9155		C.ar		1		UNL1		-0.1368
26		CL		2.6407		0.1459		2.3102		Cl		1		UNL1		-0.0299
27		H		6.1640		-0.5787		0.4671		H		1		UNL1		0.1454
28		H		5.6019		0.3301		-0.9448		H		1		UNL1		0.1588
29		H		6.9222		-0.8423		-1.1109		H		1		UNL1		0.1424
30		H		4.7720		-1.8196		-1.9921		H		1		UNL1		0.1394
31		H		5.4296		-2.7328		-0.6467		H		1		UNL1		0.1456
32		H		3.7850		-1.6426		0.7713		H		1		UNL1		0.3171
33		H		2.7152		-0.8529		-1.8222		H		1		UNL1		0.1668
34		H		1.8000		-3.3147		0.1089		H		1		UNL1		0.1618
35		H		-0.6169		-3.9326		0.5433		H		1		UNL1		0.1520
36		H		-1.5184		1.0445		-0.6975		H		1		UNL1		0.3460
37		H		-3.5866		-1.8902		0.3013		H		1		UNL1		0.1889
38		H		-6.0467		-1.7114		0.5175		H		1		UNL1		0.1566
39		H		-5.8554		2.4385		-0.6025		H		1		UNL1		0.1558
40		H		-3.4075		2.2616		-0.8188		H		1		UNL1		0.1349
41		H		3.0161		1.2490		-2.4536		H		1		UNL1		0.1367
42		H		3.3929		3.6529		-2.0266		H		1		UNL1		0.1393
43		H		3.4494		4.5008		0.3222		H		1		UNL1		0.1427
44		H		3.1103		2.9092		2.2057		H		1		UNL1		0.1572
@<TRIPOS>BOND
1		41		21		1
2		42		22		1
3		30		2		1
4		33		4		1
5		21		22		ar
6		21		20		ar
7		22		23		ar
8		29		1		1
9		28		1		1
10		2		31		1
11		2		1		1
12		2		3		1
13		40		18		1
14		4		20		1
15		4		5		1
16		4		3		1
17		36		10		1
18		1		27		1
19		39		17		1
20		18		17		ar
21		18		11		ar
22		19		5		ar
23		19		9		ar
24		10		11		1
25		10		9		1
26		17		14		ar
27		20		25		ar
28		5		6		ar
29		11		12		ar
30		9		8		ar
31		3		32		1
32		14		15		1
33		14		13		ar
34		6		34		1
35		6		7		ar
36		15		16		3
37		12		13		ar
38		12		37		1
39		8		7		ar
40		23		43		1
41		23		24		ar
42		13		38		1
43		7		35		1
44		25		24		ar
45		25		26		1
46		24		44		1

