@<TRIPOS>MOLECULE
MG2003-CJMC-255-3
 51 53 0 0 0
SMALL
MULLIKEN_CHARGES
****
Gaussian 16 #p B3LYP/6-31G* opt
@<TRIPOS>ATOM
1		C		1.1720		-3.9914		0.4198		C.3		1		UNL1		-0.4442
2		C		0.2506		-4.2321		-0.7779		C.3		1		UNL1		-0.2606
3		C		-0.2102		-2.9515		-1.5128		C.3		1		UNL1		-0.3314
4		C		-1.0609		-1.9977		-0.6978		C.ar		1		UNL1		0.0070
5		C		-0.7445		-0.7048		-0.3857		C.ar		1		UNL1		0.3082
6		C		0.5309		-0.0249		-0.8412		C.3		1		UNL1		-0.4729
7		C		1.6695		0.0589		0.1721		C.ar		1		UNL1		0.1152
8		C		1.5664		-0.4776		1.4396		C.ar		1		UNL1		-0.1993
9		C		2.6313		-0.3982		2.3700		C.ar		1		UNL1		-0.1359
10		C		3.8065		0.2207		2.0240		C.ar		1		UNL1		-0.1878
11		C		3.9665		0.7902		0.7318		C.ar		1		UNL1		0.1363
12		C		5.1749		1.4342		0.3556		C.ar		1		UNL1		-0.1932
13		C		5.3267		1.9861		-0.8960		C.ar		1		UNL1		-0.1312
14		C		4.2667		1.9165		-1.8286		C.ar		1		UNL1		-0.1326
15		C		3.0807		1.2986		-1.4950		C.ar		1		UNL1		-0.1957
16		C		2.8879		0.7156		-0.2121		C.ar		1		UNL1		0.0752
17		N		-1.6262		0.1062		0.3559		N.ar		1		UNL1		-0.5503
18		C		-1.3038		1.5081		0.6853		C.3		1		UNL1		0.0507
19		O		-1.4506		2.3946		-0.3969		O.3		1		UNL1		-0.4646
20		C		-2.7983		2.6599		-0.8079		C.3		1		UNL1		-0.0592
21		C		-3.5384		3.6177		0.1319		C.3		1		UNL1		-0.0554
22		O		-4.8974		3.7462		-0.2647		O.3		1		UNL1		-0.6151
23		C		-2.8890		-0.3344		0.7655		C.ar		1		UNL1		0.7813
24		O		-3.6961		0.3747		1.3549		O.2		1		UNL1		-0.5375
25		N		-3.1600		-1.6445		0.4461		N.ar		1		UNL1		-0.6964
26		C		-2.3708		-2.5270		-0.3029		C.ar		1		UNL1		0.5968
27		O		-2.8069		-3.6358		-0.5828		O.2		1		UNL1		-0.5058
28		H		2.0638		-3.4182		0.1386		H		1		UNL1		0.1443
29		H		1.5077		-4.9433		0.8471		H		1		UNL1		0.1442
30		H		0.6618		-3.4365		1.2150		H		1		UNL1		0.1396
31		H		0.7723		-4.8554		-1.5164		H		1		UNL1		0.1326
32		H		-0.6343		-4.7939		-0.4659		H		1		UNL1		0.1741
33		H		-0.8069		-3.2667		-2.3785		H		1		UNL1		0.1623
34		H		0.6728		-2.4404		-1.9062		H		1		UNL1		0.1383
35		H		0.2699		0.9837		-1.1812		H		1		UNL1		0.2096
36		H		0.8920		-0.5462		-1.7311		H		1		UNL1		0.1844
37		H		0.6518		-0.9814		1.7369		H		1		UNL1		0.1366
38		H		2.5082		-0.8348		3.3571		H		1		UNL1		0.1362
39		H		4.6301		0.2844		2.7308		H		1		UNL1		0.1339
40		H		5.9836		1.4832		1.0810		H		1		UNL1		0.1341
41		H		6.2570		2.4758		-1.1698		H		1		UNL1		0.1348
42		H		4.3879		2.3549		-2.8154		H		1		UNL1		0.1346
43		H		2.2817		1.2624		-2.2281		H		1		UNL1		0.1352
44		H		-0.2596		1.5663		0.9850		H		1		UNL1		0.1823
45		H		-1.9456		1.7656		1.5271		H		1		UNL1		0.1920
46		H		-3.3669		1.7260		-0.9007		H		1		UNL1		0.1369
47		H		-2.7198		3.1037		-1.8039		H		1		UNL1		0.1597
48		H		-3.4588		3.2771		1.1728		H		1		UNL1		0.1445
49		H		-3.0971		4.6170		0.0710		H		1		UNL1		0.1548
50		H		-5.3475		2.9273		-0.0027		H		1		UNL1		0.3994
51		H		-4.0784		-1.9807		0.7139		H		1		UNL1		0.3539
@<TRIPOS>BOND
1		42		14		1
2		33		3		1
3		43		15		1
4		34		3		1
5		14		15		ar
6		14		13		ar
7		47		20		1
8		36		6		1
9		31		2		1
10		3		2		1
11		3		4		1
12		15		16		ar
13		35		6		1
14		41		13		1
15		46		20		1
16		13		12		ar
17		6		5		1
18		6		7		1
19		20		19		1
20		20		21		1
21		2		32		1
22		2		1		1
23		4		5		ar
24		4		26		ar
25		27		26		2
26		19		18		1
27		5		17		ar
28		26		25		ar
29		22		50		1
30		22		21		1
31		16		7		ar
32		16		11		ar
33		49		21		1
34		21		48		1
35		28		1		1
36		7		8		ar
37		12		11		ar
38		12		40		1
39		17		18		1
40		17		23		ar
41		1		29		1
42		1		30		1
43		25		51		1
44		25		23		ar
45		18		44		1
46		18		45		1
47		11		10		ar
48		23		24		2
49		8		37		1
50		8		9		ar
51		10		9		ar
52		10		39		1
53		9		38		1

