@<TRIPOS>MOLECULE
MG2003-CJMC-255-5
 41 43 0 0 0
SMALL
MULLIKEN_CHARGES
****
Gaussian 16 #p B3LYP/6-31G* opt
@<TRIPOS>ATOM
1		C		-1.9314		-3.8310		-0.8503		C.3		1		UNL1		-0.2067
2		O		-1.6395		-2.5180		-0.3986		O.3		1		UNL1		-0.4511
3		C		-2.4317		-1.5383		-1.0409		C.3		1		UNL1		0.0771
4		N		-2.2101		-0.2505		-0.4121		N.ar		1		UNL1		-0.5752
5		C		-1.0700		0.5409		-0.6766		C.ar		1		UNL1		0.3450
6		C		-0.0023		-0.1094		-1.5573		C.3		1		UNL1		-0.4737
7		C		1.4578		0.1058		-1.1815		C.ar		1		UNL1		0.1316
8		C		2.3056		0.7033		-2.0930		C.ar		1		UNL1		-0.2108
9		C		3.6784		0.9013		-1.8182		C.ar		1		UNL1		-0.1303
10		C		4.2026		0.4966		-0.6147		C.ar		1		UNL1		-0.1904
11		C		3.3810		-0.1459		0.3497		C.ar		1		UNL1		0.1415
12		C		3.9144		-0.5902		1.5892		C.ar		1		UNL1		-0.1969
13		C		3.1239		-1.2376		2.5104		C.ar		1		UNL1		-0.1291
14		C		1.7605		-1.4780		2.2224		C.ar		1		UNL1		-0.1447
15		C		1.2075		-1.0544		1.0333		C.ar		1		UNL1		-0.2016
16		C		1.9899		-0.3652		0.0645		C.ar		1		UNL1		0.0748
17		C		-0.9763		1.8106		-0.1897		C.ar		1		UNL1		0.0033
18		C		0.1418		2.7793		-0.4827		C.3		1		UNL1		-0.5281
19		C		-2.0205		2.3242		0.7046		C.ar		1		UNL1		0.5981
20		O		-2.0437		3.4398		1.2063		O.2		1		UNL1		-0.5086
21		N		-3.0451		1.4152		0.9900		N.ar		1		UNL1		-0.6983
22		C		-3.2264		0.1552		0.4701		C.ar		1		UNL1		0.7868
23		O		-4.1971		-0.5340		0.7410		O.2		1		UNL1		-0.5169
24		H		-1.2780		-4.5067		-0.2951		H		1		UNL1		0.1742
25		H		-1.7332		-3.9451		-1.9273		H		1		UNL1		0.1375
26		H		-2.9803		-4.0970		-0.6538		H		1		UNL1		0.1521
27		H		-3.4944		-1.7654		-0.9278		H		1		UNL1		0.1952
28		H		-2.1834		-1.4762		-2.1092		H		1		UNL1		0.1446
29		H		-0.1462		0.2475		-2.5860		H		1		UNL1		0.1732
30		H		-0.1743		-1.1872		-1.5734		H		1		UNL1		0.2009
31		H		1.9063		1.0470		-3.0447		H		1		UNL1		0.1234
32		H		4.3089		1.3826		-2.5607		H		1		UNL1		0.1321
33		H		5.2539		0.6535		-0.3858		H		1		UNL1		0.1318
34		H		4.9674		-0.4115		1.7941		H		1		UNL1		0.1308
35		H		3.5452		-1.5726		3.4544		H		1		UNL1		0.1317
36		H		1.1429		-2.0055		2.9442		H		1		UNL1		0.1339
37		H		0.1667		-1.2777		0.8284		H		1		UNL1		0.1691
38		H		-0.2068		3.7849		-0.2377		H		1		UNL1		0.1893
39		H		1.0322		2.5805		0.1241		H		1		UNL1		0.1803
40		H		0.4464		2.7550		-1.5317		H		1		UNL1		0.1500
41		H		-3.7734		1.7379		1.6168		H		1		UNL1		0.3539
@<TRIPOS>BOND
1		31		8		1
2		29		6		1
3		32		9		1
4		28		3		1
5		8		9		ar
6		8		7		ar
7		25		1		1
8		9		10		ar
9		30		6		1
10		6		7		1
11		6		5		1
12		40		18		1
13		7		16		ar
14		3		27		1
15		3		4		1
16		3		2		1
17		1		26		1
18		1		2		1
19		1		24		1
20		5		4		ar
21		5		17		ar
22		10		33		1
23		10		11		ar
24		18		38		1
25		18		17		1
26		18		39		1
27		4		22		ar
28		17		19		ar
29		16		11		ar
30		16		15		ar
31		11		12		ar
32		22		23		2
33		22		21		ar
34		19		21		ar
35		19		20		2
36		37		15		1
37		21		41		1
38		15		14		ar
39		12		34		1
40		12		13		ar
41		14		13		ar
42		14		36		1
43		13		35		1

