@<TRIPOS>MOLECULE
MG2003-CJMC-255-16
 57 60 0 0 0
SMALL
MULLIKEN_CHARGES
****
Gaussian 16 #p B3LYP/6-31G* opt
@<TRIPOS>ATOM
1		C		-4.7704		0.1414		1.2339		C.3		1		UNL1		-0.4644
2		C		-3.4393		-0.5105		1.6657		C.3		1		UNL1		-0.1400
3		C		-3.6815		-1.5957		2.7356		C.3		1		UNL1		-0.4516
4		C		-2.6244		-1.0655		0.4960		C.ar		1		UNL1		-0.0235
5		C		-1.3042		-0.7838		0.2510		C.ar		1		UNL1		0.3504
6		C		-0.4544		0.0914		1.1664		C.3		1		UNL1		-0.4651
7		C		0.1830		1.3869		0.6500		C.ar		1		UNL1		0.1028
8		C		1.5273		1.5777		0.9205		C.ar		1		UNL1		-0.2138
9		C		2.2085		2.7631		0.5633		C.ar		1		UNL1		-0.1306
10		C		1.5337		3.7769		-0.0707		C.ar		1		UNL1		-0.1923
11		C		0.1513		3.6445		-0.3645		C.ar		1		UNL1		0.1432
12		C		-0.5589		4.6939		-1.0072		C.ar		1		UNL1		-0.1960
13		C		-1.9017		4.5814		-1.2826		C.ar		1		UNL1		-0.1313
14		C		-2.5932		3.4022		-0.9228		C.ar		1		UNL1		-0.1480
15		C		-1.9335		2.3646		-0.3016		C.ar		1		UNL1		-0.1910
16		C		-0.5457		2.4394		-0.0009		C.ar		1		UNL1		0.0790
17		N		-0.6235		-1.3596		-0.8372		N.ar		1		UNL1		-0.5680
18		C		0.8280		-1.3467		-0.9353		C.3		1		UNL1		0.0657
19		O		1.3318		-2.3316		-0.0432		O.3		1		UNL1		-0.4703
20		C		2.6580		-2.7683		-0.3506		C.3		1		UNL1		-0.1232
21		C		3.7295		-1.7618		0.0171		C.ar		1		UNL1		0.1452
22		C		4.4653		-1.0924		-0.9663		C.ar		1		UNL1		-0.1814
23		C		5.4410		-0.1560		-0.6148		C.ar		1		UNL1		-0.1249
24		C		5.6894		0.1217		0.7295		C.ar		1		UNL1		-0.1309
25		C		4.9606		-0.5421		1.7216		C.ar		1		UNL1		-0.1316
26		C		3.9889		-1.4766		1.3659		C.ar		1		UNL1		-0.1761
27		C		-1.2444		-2.2403		-1.7391		C.ar		1		UNL1		0.7935
28		O		-0.6644		-2.7670		-2.6746		O.2		1		UNL1		-0.5173
29		N		-2.5766		-2.4582		-1.4792		N.ar		1		UNL1		-0.6947
30		C		-3.3190		-2.0198		-0.3788		C.ar		1		UNL1		0.6037
31		O		-4.4605		-2.4416		-0.2309		O.2		1		UNL1		-0.5140
32		H		-5.4547		-0.5979		0.8156		H		1		UNL1		0.1910
33		H		-5.2456		0.6075		2.1051		H		1		UNL1		0.1377
34		H		-4.6120		0.9260		0.4851		H		1		UNL1		0.1405
35		H		-2.8578		0.2851		2.1395		H		1		UNL1		0.1299
36		H		-4.2287		-1.1730		3.5868		H		1		UNL1		0.1398
37		H		-2.7348		-2.0030		3.1092		H		1		UNL1		0.1366
38		H		-4.2721		-2.4176		2.3224		H		1		UNL1		0.1806
39		H		0.3582		-0.5456		1.5336		H		1		UNL1		0.1959
40		H		-1.0539		0.3338		2.0450		H		1		UNL1		0.1867
41		H		2.0870		0.7891		1.4166		H		1		UNL1		0.1446
42		H		3.2669		2.8552		0.7893		H		1		UNL1		0.1348
43		H		2.0439		4.6944		-0.3540		H		1		UNL1		0.1314
44		H		-0.0147		5.5961		-1.2766		H		1		UNL1		0.1312
45		H		-2.4315		5.3931		-1.7736		H		1		UNL1		0.1330
46		H		-3.6544		3.3121		-1.1390		H		1		UNL1		0.1343
47		H		-2.4826		1.4690		-0.0467		H		1		UNL1		0.1484
48		H		1.0757		-1.5997		-1.9683		H		1		UNL1		0.1842
49		H		1.2079		-0.3548		-0.6961		H		1		UNL1		0.1740
50		H		2.7260		-3.0277		-1.4175		H		1		UNL1		0.1487
51		H		2.7833		-3.6884		0.2290		H		1		UNL1		0.1611
52		H		4.2769		-1.3079		-2.0159		H		1		UNL1		0.1344
53		H		6.0056		0.3538		-1.3908		H		1		UNL1		0.1364
54		H		6.4518		0.8452		1.0057		H		1		UNL1		0.1349
55		H		5.1571		-0.3368		2.7707		H		1		UNL1		0.1360
56		H		3.4257		-1.9965		2.1378		H		1		UNL1		0.1375
57		H		-3.0403		-3.1170		-2.0948		H		1		UNL1		0.3531
@<TRIPOS>BOND
1		28		27		2
2		57		29		1
3		52		22		1
4		48		18		1
5		45		13		1
6		27		29		ar
7		27		17		ar
8		29		30		ar
9		50		20		1
10		53		23		1
11		13		12		ar
12		13		14		ar
13		44		12		1
14		46		14		1
15		12		11		ar
16		22		23		ar
17		22		21		ar
18		18		17		1
19		18		49		1
20		18		19		1
21		14		15		ar
22		17		5		ar
23		23		24		ar
24		30		31		2
25		30		4		ar
26		11		10		ar
27		11		16		ar
28		43		10		1
29		20		19		1
30		20		21		1
31		20		51		1
32		15		47		1
33		15		16		ar
34		10		9		ar
35		16		7		ar
36		21		26		ar
37		5		4		ar
38		5		6		1
39		34		1		1
40		4		2		1
41		9		42		1
42		9		8		ar
43		7		8		ar
44		7		6		1
45		24		54		1
46		24		25		ar
47		32		1		1
48		8		41		1
49		6		39		1
50		6		40		1
51		1		2		1
52		1		33		1
53		26		25		ar
54		26		56		1
55		2		35		1
56		2		3		1
57		25		55		1
58		38		3		1
59		3		37		1
60		3		36		1

