@<TRIPOS>MOLECULE
MG2003-CJMC-255-11
 50 52 0 0 0
SMALL
MULLIKEN_CHARGES
****
Gaussian 16 #p B3LYP/6-31G* opt
@<TRIPOS>ATOM
1		C		1.2671		-4.7665		-1.3335		C.3		1		UNL1		-0.4431
2		C		1.5090		-3.5038		-0.5016		C.3		1		UNL1		-0.2561
3		C		1.8243		-2.2749		-1.3794		C.3		1		UNL1		-0.3320
4		C		2.1424		-1.0272		-0.5872		C.ar		1		UNL1		-0.0108
5		C		1.2671		-0.0247		-0.2866		C.ar		1		UNL1		0.3261
6		C		-0.1723		-0.0207		-0.7519		C.3		1		UNL1		-0.4635
7		C		-1.2132		-0.4730		0.2701		C.ar		1		UNL1		0.1112
8		C		-0.8551		-1.0017		1.4944		C.ar		1		UNL1		-0.1981
9		C		-1.8267		-1.4296		2.4317		C.ar		1		UNL1		-0.1368
10		C		-3.1637		-1.3283		2.1378		C.ar		1		UNL1		-0.1883
11		C		-3.5874		-0.7963		0.8902		C.ar		1		UNL1		0.1365
12		C		-4.9658		-0.6880		0.5656		C.ar		1		UNL1		-0.1935
13		C		-5.3734		-0.1775		-0.6457		C.ar		1		UNL1		-0.1318
14		C		-4.4107		0.2487		-1.5891		C.ar		1		UNL1		-0.1335
15		C		-3.0650		0.1594		-1.3044		C.ar		1		UNL1		-0.1989
16		C		-2.6059		-0.3608		-0.0625		C.ar		1		UNL1		0.0740
17		N		1.6631		1.0849		0.4821		N.ar		1		UNL1		-0.5636
18		C		0.7707		2.2055		0.7233		C.3		1		UNL1		0.0812
19		O		0.6918		2.9889		-0.4523		O.3		1		UNL1		-0.4704
20		C		-0.0296		4.2022		-0.2520		C.3		1		UNL1		-0.0175
21		C		-0.0386		4.9708		-1.5622		C.3		1		UNL1		-0.4546
22		C		2.9790		1.2562		0.9403		C.ar		1		UNL1		0.7901
23		O		3.3516		2.2283		1.5765		O.2		1		UNL1		-0.5150
24		N		3.8203		0.2101		0.6275		N.ar		1		UNL1		-0.7020
25		C		3.5259		-0.9430		-0.1072		C.ar		1		UNL1		0.6067
26		O		4.3965		-1.7809		-0.3040		O.2		1		UNL1		-0.5130
27		H		1.0480		-5.6275		-0.6920		H		1		UNL1		0.1445
28		H		2.1477		-5.0160		-1.9376		H		1		UNL1		0.1495
29		H		0.4191		-4.6378		-2.0181		H		1		UNL1		0.1383
30		H		0.6284		-3.2916		0.1182		H		1		UNL1		0.1364
31		H		2.3501		-3.6674		0.1824		H		1		UNL1		0.1565
32		H		2.7038		-2.5070		-1.9902		H		1		UNL1		0.1688
33		H		0.9933		-2.1040		-2.0722		H		1		UNL1		0.1354
34		H		-0.2468		-0.6623		-1.6342		H		1		UNL1		0.1847
35		H		-0.4099		0.9891		-1.1027		H		1		UNL1		0.2000
36		H		0.1953		-1.0987		1.7510		H		1		UNL1		0.1396
37		H		-1.5016		-1.8388		3.3841		H		1		UNL1		0.1367
38		H		-3.9162		-1.6546		2.8516		H		1		UNL1		0.1333
39		H		-5.6981		-1.0206		1.2976		H		1		UNL1		0.1339
40		H		-6.4316		-0.1019		-0.8804		H		1		UNL1		0.1343
41		H		-4.7348		0.6488		-2.5460		H		1		UNL1		0.1335
42		H		-2.3467		0.4905		-2.0471		H		1		UNL1		0.1350
43		H		-0.2172		1.8297		1.0130		H		1		UNL1		0.1547
44		H		1.2007		2.7795		1.5478		H		1		UNL1		0.1892
45		H		-1.0584		3.9818		0.0779		H		1		UNL1		0.1284
46		H		0.4521		4.7925		0.5437		H		1		UNL1		0.1379
47		H		-0.5784		5.9165		-1.4437		H		1		UNL1		0.1489
48		H		-0.5287		4.3880		-2.3488		H		1		UNL1		0.1566
49		H		0.9842		5.1911		-1.8832		H		1		UNL1		0.1673
50		H		4.7738		0.3040		0.9589		H		1		UNL1		0.3533
@<TRIPOS>BOND
1		41		14		1
2		48		21		1
3		33		3		1
4		42		15		1
5		29		1		1
6		32		3		1
7		28		1		1
8		49		21		1
9		34		6		1
10		14		15		ar
11		14		13		ar
12		21		47		1
13		21		20		1
14		3		4		1
15		3		2		1
16		1		27		1
17		1		2		1
18		15		16		ar
19		35		6		1
20		40		13		1
21		6		5		1
22		6		7		1
23		13		12		ar
24		4		5		ar
25		4		25		ar
26		2		30		1
27		2		31		1
28		19		20		1
29		19		18		1
30		26		25		2
31		5		17		ar
32		20		45		1
33		20		46		1
34		25		24		ar
35		16		7		ar
36		16		11		ar
37		7		8		ar
38		17		18		1
39		17		22		ar
40		12		11		ar
41		12		39		1
42		24		22		ar
43		24		50		1
44		18		43		1
45		18		44		1
46		11		10		ar
47		22		23		2
48		8		36		1
49		8		9		ar
50		10		9		ar
51		10		38		1
52		9		37		1

