@<TRIPOS>MOLECULE
MG2003-CJMC-255-13
 51 54 0 0 0
SMALL
MULLIKEN_CHARGES
****
Gaussian 16 #p B3LYP/6-31G* opt
@<TRIPOS>ATOM
1		C		1.3585		2.6324		-2.3556		C.3		1		UNL1		-0.5514
2		C		0.7716		2.3009		-1.0025		C.ar		1		UNL1		-0.0089
3		C		0.5309		1.0350		-0.5454		C.ar		1		UNL1		0.3527
4		C		0.8864		-0.1729		-1.4050		C.3		1		UNL1		-0.4600
5		C		1.8074		-1.2591		-0.8452		C.ar		1		UNL1		0.1193
6		C		1.3897		-2.5745		-0.9449		C.ar		1		UNL1		-0.2164
7		C		2.1933		-3.6556		-0.5165		C.ar		1		UNL1		-0.1287
8		C		3.4347		-3.4145		0.0181		C.ar		1		UNL1		-0.1897
9		C		3.9248		-2.0866		0.1295		C.ar		1		UNL1		0.1425
10		C		5.2176		-1.8302		0.6597		C.ar		1		UNL1		-0.1946
11		C		5.7093		-0.5487		0.7475		C.ar		1		UNL1		-0.1298
12		C		4.9205		0.5368		0.3029		C.ar		1		UNL1		-0.1414
13		C		3.6600		0.3238		-0.2109		C.ar		1		UNL1		-0.1927
14		C		3.1122		-0.9854		-0.3121		C.ar		1		UNL1		0.0780
15		N		-0.0426		0.8131		0.7144		N.ar		1		UNL1		-0.5773
16		C		-0.6521		-0.4597		1.1415		C.3		1		UNL1		0.0716
17		O		-2.0531		-0.4523		1.0448		O.3		1		UNL1		-0.4508
18		C		-2.5774		-0.5851		-0.2707		C.3		1		UNL1		-0.1000
19		C		-4.0790		-0.7436		-0.2075		C.ar		1		UNL1		0.1291
20		C		-4.8789		-0.2413		-1.2395		C.ar		1		UNL1		-0.1791
21		C		-6.2615		-0.4306		-1.2232		C.ar		1		UNL1		-0.1296
22		C		-6.8596		-1.1163		-0.1651		C.ar		1		UNL1		-0.1263
23		C		-6.0675		-1.6110		0.8733		C.ar		1		UNL1		-0.1326
24		C		-4.6846		-1.4300		0.8514		C.ar		1		UNL1		-0.1576
25		C		-0.2528		1.8604		1.6325		C.ar		1		UNL1		0.7930
26		O		-0.6625		1.6791		2.7646		O.2		1		UNL1		-0.5043
27		N		0.0383		3.1155		1.1396		N.ar		1		UNL1		-0.6994
28		C		0.4901		3.4528		-0.1382		C.ar		1		UNL1		0.6001
29		O		0.6514		4.6282		-0.4404		O.2		1		UNL1		-0.5125
30		H		2.3785		2.2474		-2.4822		H		1		UNL1		0.1623
31		H		1.3992		3.7191		-2.4519		H		1		UNL1		0.2039
32		H		0.7520		2.2421		-3.1809		H		1		UNL1		0.1594
33		H		-0.0415		-0.6616		-1.7263		H		1		UNL1		0.1735
34		H		1.3364		0.2188		-2.3202		H		1		UNL1		0.1902
35		H		0.4107		-2.7896		-1.3684		H		1		UNL1		0.1291
36		H		1.8193		-4.6709		-0.6122		H		1		UNL1		0.1370
37		H		4.0632		-4.2347		0.3561		H		1		UNL1		0.1362
38		H		5.8164		-2.6745		0.9930		H		1		UNL1		0.1346
39		H		6.7006		-0.3679		1.1537		H		1		UNL1		0.1365
40		H		5.3106		1.5488		0.3676		H		1		UNL1		0.1384
41		H		3.0729		1.1735		-0.5349		H		1		UNL1		0.1458
42		H		-0.2092		-1.2702		0.5637		H		1		UNL1		0.1579
43		H		-0.4302		-0.5818		2.1990		H		1		UNL1		0.1993
44		H		-2.1251		-1.4692		-0.7556		H		1		UNL1		0.1341
45		H		-2.3201		0.2906		-0.8857		H		1		UNL1		0.1422
46		H		-4.4193		0.3061		-2.0600		H		1		UNL1		0.1220
47		H		-6.8705		-0.0330		-2.0307		H		1		UNL1		0.1308
48		H		-7.9369		-1.2584		-0.1460		H		1		UNL1		0.1303
49		H		-6.5278		-2.1385		1.7047		H		1		UNL1		0.1323
50		H		-4.0681		-1.8029		1.6627		H		1		UNL1		0.1467
51		H		-0.1288		3.8838		1.7795		H		1		UNL1		0.3544
@<TRIPOS>BOND
1		32		1		1
2		30		1		1
3		31		1		1
4		1		2		1
5		34		4		1
6		46		20		1
7		47		21		1
8		33		4		1
9		4		5		1
10		4		3		1
11		35		6		1
12		20		21		ar
13		20		19		ar
14		21		22		ar
15		2		3		ar
16		2		28		ar
17		6		5		ar
18		6		7		ar
19		45		18		1
20		5		14		ar
21		44		18		1
22		36		7		1
23		3		15		ar
24		41		13		1
25		7		8		ar
26		29		28		2
27		14		13		ar
28		14		9		ar
29		18		19		1
30		18		17		1
31		13		12		ar
32		19		24		ar
33		22		48		1
34		22		23		ar
35		28		27		ar
36		8		9		ar
37		8		37		1
38		9		10		ar
39		12		40		1
40		12		11		ar
41		42		16		1
42		10		11		ar
43		10		38		1
44		15		16		1
45		15		25		ar
46		11		39		1
47		24		23		ar
48		24		50		1
49		23		49		1
50		17		16		1
51		27		25		ar
52		27		51		1
53		16		43		1
54		25		26		2

