@<TRIPOS>MOLECULE
MXD-2011-BMC-4601-10q
 62 65 0 0 0
SMALL
MULLIKEN_CHARGES
****
Gaussian 16 #p B3LYP/6-31G* opt
@<TRIPOS>ATOM
1		C		-0.6483		5.9306		2.3128		C.3		1		UNL1		-0.5343
2		C		-1.3010		4.8752		1.4542		C.ar		1		UNL1		0.1417
3		C		-0.8932		3.5399		1.5480		C.ar		1		UNL1		-0.2007
4		C		-1.4754		2.5410		0.7713		C.ar		1		UNL1		-0.1694
5		C		-2.4945		2.8712		-0.1298		C.ar		1		UNL1		0.0976
6		C		-3.1990		1.8611		-0.9696		C.2		1		UNL1		0.3260
7		O		-4.1642		2.1708		-1.6589		O.2		1		UNL1		-0.4724
8		C		-2.7722		0.4069		-0.9269		C.ar		1		UNL1		-0.0534
9		C		-1.5265		0.0196		-1.4008		C.ar		1		UNL1		0.3580
10		O		-0.7288		1.0335		-1.8775		O.3		1		UNL1		-0.5118
11		C		0.5656		0.7604		-2.3390		C.3		1		UNL1		-0.1441
12		C		1.5522		0.4313		-1.1981		C.2		1		UNL1		0.6023
13		O		1.2425		0.5125		-0.0237		O.2		1		UNL1		-0.4715
14		N		2.7938		0.0603		-1.6721		N.am		1		UNL1		-0.7329
15		C		3.9681		-0.2474		-0.9532		C.ar		1		UNL1		0.2949
16		C		4.0134		-0.2025		0.4495		C.ar		1		UNL1		-0.1527
17		C		5.1954		-0.5086		1.1167		C.ar		1		UNL1		-0.1719
18		C		6.3283		-0.8675		0.3877		C.ar		1		UNL1		-0.1417
19		S		7.8496		-1.2938		1.2426		S.O2		1		UNL1		1.1638
20		N		7.7727		-2.9368		1.6144		N.3		1		UNL1		-0.7852
21		O		7.8342		-0.6037		2.5308		O.2		1		UNL1		-0.5245
22		O		8.9406		-1.1645		0.2774		O.2		1		UNL1		-0.5277
23		C		6.2898		-0.9048		-1.0067		C.ar		1		UNL1		-0.2279
24		C		5.1193		-0.5972		-1.6996		C.ar		1		UNL1		0.1558
25		C		5.1043		-0.6313		-3.2109		C.3		1		UNL1		-0.5682
26		C		-1.1406		-1.3424		-1.4197		C.ar		1		UNL1		-0.1769
27		C		-2.0086		-2.3069		-0.9668		C.ar		1		UNL1		-0.1984
28		C		-3.2970		-1.9672		-0.4858		C.ar		1		UNL1		0.1372
29		C		-4.1922		-2.9660		-0.0171		C.ar		1		UNL1		-0.2231
30		C		-5.4349		-2.6089		0.4400		C.ar		1		UNL1		0.0814
31		BR		-6.6435		-3.9497		1.0734		Br		1		UNL1		-0.1337
32		C		-5.8496		-1.2577		0.4521		C.ar		1		UNL1		-0.1535
33		C		-4.9981		-0.2759		0.0020		C.ar		1		UNL1		-0.1876
34		C		-3.6940		-0.5896		-0.4787		C.ar		1		UNL1		0.1066
35		C		-2.9075		4.2104		-0.2260		C.ar		1		UNL1		-0.2263
36		C		-2.3306		5.2163		0.5451		C.ar		1		UNL1		0.1314
37		C		-2.8032		6.6450		0.4099		C.3		1		UNL1		-0.5330
38		H		0.1254		5.4974		2.9535		H		1		UNL1		0.1593
39		H		-0.1800		6.7148		1.7037		H		1		UNL1		0.1626
40		H		-1.3786		6.4326		2.9607		H		1		UNL1		0.1642
41		H		-0.1001		3.2768		2.2437		H		1		UNL1		0.1290
42		H		-1.1243		1.5197		0.8623		H		1		UNL1		0.1638
43		H		0.5711		-0.0375		-3.0972		H		1		UNL1		0.1617
44		H		0.8946		1.6832		-2.8300		H		1		UNL1		0.1980
45		H		2.8886		0.0340		-2.6784		H		1		UNL1		0.3426
46		H		3.1268		0.0797		0.9989		H		1		UNL1		0.1996
47		H		5.2413		-0.4450		2.1990		H		1		UNL1		0.1796
48		H		7.7470		-3.5247		0.7852		H		1		UNL1		0.3470
49		H		7.0267		-3.1541		2.2705		H		1		UNL1		0.3490
50		H		7.1923		-1.1531		-1.5566		H		1		UNL1		0.1751
51		H		6.0848		-0.9192		-3.5983		H		1		UNL1		0.1851
52		H		4.8651		0.3495		-3.6456		H		1		UNL1		0.1696
53		H		4.3773		-1.3562		-3.6034		H		1		UNL1		0.1649
54		H		-0.1605		-1.6359		-1.7775		H		1		UNL1		0.1307
55		H		-1.7077		-3.3512		-0.9741		H		1		UNL1		0.1400
56		H		-3.8825		-4.0061		-0.0250		H		1		UNL1		0.1506
57		H		-6.8403		-1.0045		0.8133		H		1		UNL1		0.1558
58		H		-5.3335		0.7540		-0.0029		H		1		UNL1		0.1662
59		H		-3.7033		4.4471		-0.9261		H		1		UNL1		0.1515
60		H		-3.6016		6.7248		-0.3335		H		1		UNL1		0.1619
61		H		-1.9904		7.3154		0.1011		H		1		UNL1		0.1583
62		H		-3.1902		7.0371		1.3595		H		1		UNL1		0.1599
@<TRIPOS>BOND
1		52		25		1
2		53		25		1
3		51		25		1
4		25		24		1
5		43		11		1
6		44		11		1
7		45		14		1
8		11		10		1
9		11		12		1
10		10		9		1
11		54		26		1
12		24		23		ar
13		24		15		ar
14		14		12		1
15		14		15		1
16		7		6		2
17		50		23		1
18		26		9		ar
19		26		27		ar
20		9		8		ar
21		12		13		2
22		23		18		ar
23		55		27		1
24		6		8		1
25		6		5		1
26		27		28		ar
27		15		16		ar
28		8		34		ar
29		59		35		1
30		28		34		ar
31		28		29		ar
32		34		33		ar
33		60		37		1
34		35		5		ar
35		35		36		ar
36		5		4		ar
37		56		29		1
38		29		30		ar
39		58		33		1
40		33		32		ar
41		61		37		1
42		22		19		2
43		18		17		ar
44		18		19		1
45		37		36		1
46		37		62		1
47		30		32		ar
48		30		31		1
49		16		46		1
50		16		17		ar
51		32		57		1
52		36		2		ar
53		4		42		1
54		4		3		ar
55		48		20		1
56		17		47		1
57		19		20		1
58		19		21		2
59		2		3		ar
60		2		1		1
61		3		41		1
62		20		49		1
63		39		1		1
64		1		38		1
65		1		40		1

