@<TRIPOS>MOLECULE
MXD-2011-BMC-4704-7t
 58 61 0 0 0
SMALL
MULLIKEN_CHARGES
****
Gaussian 16 #p B3LYP/6-31G* opt
@<TRIPOS>ATOM
1		C		-2.8750		-2.7825		0.3030		C.3		1		UNL1		-0.5537
2		C		-3.2905		-1.3423		0.4812		C.ar		1		UNL1		0.1765
3		C		-4.3393		-0.8033		-0.2667		C.ar		1		UNL1		-0.2275
4		C		-4.7092		0.5356		-0.1239		C.ar		1		UNL1		-0.1404
5		S		-6.0735		1.1893		-1.0997		S.O2		1		UNL1		1.1688
6		N		-7.4833		0.9454		-0.2129		N.3		1		UNL1		-0.7857
7		O		-5.8982		2.6387		-1.1643		O.2		1		UNL1		-0.5240
8		O		-6.2046		0.3415		-2.2826		O.2		1		UNL1		-0.5228
9		C		-4.0423		1.3697		0.7722		C.ar		1		UNL1		-0.1673
10		C		-3.0101		0.8415		1.5423		C.ar		1		UNL1		-0.1487
11		C		-2.6193		-0.4959		1.3935		C.ar		1		UNL1		0.2579
12		N		-1.5720		-1.0360		2.1766		N.am		1		UNL1		-0.7029
13		C		-0.2835		-0.5878		2.4092		C.2		1		UNL1		0.5822
14		O		0.4887		-1.2614		3.0686		O.2		1		UNL1		-0.4749
15		C		0.1160		0.7582		1.7949		C.3		1		UNL1		-0.1212
16		O		1.5181		0.7399		1.6499		O.3		1		UNL1		-0.5120
17		C		2.1137		1.7158		0.8949		C.ar		1		UNL1		0.3459
18		C		1.4818		2.8981		0.5043		C.ar		1		UNL1		-0.1850
19		C		2.1733		3.8458		-0.2560		C.ar		1		UNL1		-0.1404
20		C		3.4922		3.5974		-0.6128		C.ar		1		UNL1		-0.0613
21		CL		4.3760		4.7837		-1.5679		Cl		1		UNL1		-0.0287
22		C		4.1301		2.4177		-0.2251		C.ar		1		UNL1		-0.2068
23		C		3.4527		1.4635		0.5307		C.ar		1		UNL1		0.0647
24		C		4.1363		0.1559		0.9431		C.3		1		UNL1		-0.0042
25		O		5.5552		0.2458		0.8143		O.3		1		UNL1		-0.6258
26		C		3.6697		-1.0145		0.0908		C.ar		1		UNL1		0.1736
27		C		4.1084		-1.1394		-1.2554		C.ar		1		UNL1		-0.1650
28		C		3.6635		-2.1741		-2.0438		C.ar		1		UNL1		-0.1973
29		C		2.7467		-3.1377		-1.5408		C.ar		1		UNL1		0.1420
30		C		2.2505		-4.2099		-2.3296		C.ar		1		UNL1		-0.1931
31		C		1.3589		-5.1193		-1.8048		C.ar		1		UNL1		-0.1351
32		C		0.9223		-4.9993		-0.4619		C.ar		1		UNL1		-0.1436
33		C		1.3870		-3.9720		0.3304		C.ar		1		UNL1		-0.2007
34		C		2.3065		-3.0173		-0.1837		C.ar		1		UNL1		0.1215
35		C		2.7972		-1.9462		0.6095		C.ar		1		UNL1		-0.2787
36		H		-3.4178		-3.2410		-0.5277		H		1		UNL1		0.1768
37		H		-3.0866		-3.3838		1.1988		H		1		UNL1		0.1617
38		H		-1.8017		-2.8739		0.0985		H		1		UNL1		0.1949
39		H		-4.8506		-1.4203		-0.9994		H		1		UNL1		0.1791
40		H		-7.7059		-0.0380		-0.0834		H		1		UNL1		0.3501
41		H		-7.5036		1.4745		0.6549		H		1		UNL1		0.3501
42		H		-4.3264		2.4127		0.8627		H		1		UNL1		0.1827
43		H		-2.5155		1.4652		2.2798		H		1		UNL1		0.1499
44		H		-1.6917		-1.9849		2.5147		H		1		UNL1		0.3437
45		H		-0.3781		0.9096		0.8275		H		1		UNL1		0.1793
46		H		-0.1993		1.5719		2.4661		H		1		UNL1		0.1681
47		H		0.4549		3.1007		0.7874		H		1		UNL1		0.1406
48		H		1.6847		4.7650		-0.5602		H		1		UNL1		0.1575
49		H		5.1579		2.2290		-0.5132		H		1		UNL1		0.1648
50		H		3.8616		-0.0577		1.9843		H		1		UNL1		0.1537
51		H		5.8575		0.9448		1.4168		H		1		UNL1		0.3952
52		H		4.8100		-0.4126		-1.6528		H		1		UNL1		0.1424
53		H		4.0081		-2.2656		-3.0714		H		1		UNL1		0.1293
54		H		2.5871		-4.3013		-3.3599		H		1		UNL1		0.1298
55		H		0.9881		-5.9353		-2.4195		H		1		UNL1		0.1276
56		H		0.2249		-5.7286		-0.0574		H		1		UNL1		0.1233
57		H		1.0632		-3.8741		1.3643		H		1		UNL1		0.1375
58		H		2.4510		-1.8555		1.6349		H		1		UNL1		0.1754
@<TRIPOS>BOND
1		54		30		1
2		53		28		1
3		55		31		1
4		30		31		ar
5		30		29		ar
6		8		5		2
7		28		29		ar
8		28		27		ar
9		31		32		ar
10		52		27		1
11		21		20		1
12		29		34		ar
13		27		26		ar
14		7		5		2
15		5		6		1
16		5		4		1
17		39		3		1
18		20		19		ar
19		20		22		ar
20		48		19		1
21		36		1		1
22		49		22		1
23		32		56		1
24		32		33		ar
25		3		4		ar
26		3		2		ar
27		19		18		ar
28		22		23		ar
29		6		40		1
30		6		41		1
31		34		33		ar
32		34		35		ar
33		4		9		ar
34		26		35		ar
35		26		24		1
36		38		1		1
37		1		2		1
38		1		37		1
39		33		57		1
40		2		11		ar
41		18		47		1
42		18		17		ar
43		23		17		ar
44		23		24		1
45		35		58		1
46		9		42		1
47		9		10		ar
48		25		24		1
49		25		51		1
50		45		15		1
51		17		16		1
52		24		50		1
53		11		10		ar
54		11		12		1
55		10		43		1
56		16		15		1
57		15		13		1
58		15		46		1
59		12		13		1
60		12		44		1
61		13		14		2

