@<TRIPOS>MOLECULE
MXD-2011-CMC-2225-9h
 38 40 0 0 0
SMALL
MULLIKEN_CHARGES
****
Gaussian 16 #p B3LYP/6-31G* opt
@<TRIPOS>ATOM
1		N		8.3744		0.8344		0.0739		N.1		1		UNL1		-0.4878
2		C		7.2187		0.6982		0.0339		C.1		1		UNL1		0.2256
3		C		5.7986		0.5332		-0.0157		C.ar		1		UNL1		0.1299
4		C		5.2240		-0.7483		0.0209		C.ar		1		UNL1		-0.1538
5		C		3.8468		-0.9227		-0.0270		C.ar		1		UNL1		-0.1605
6		C		3.0014		0.2000		-0.1140		C.ar		1		UNL1		0.3845
7		N		1.6113		0.1357		-0.1692		N.pl3		1		UNL1		-0.7694
8		C		0.7243		-0.9245		-0.1504		C.ar		1		UNL1		0.6969
9		N		1.1742		-2.1810		-0.0657		N.ar		1		UNL1		-0.4828
10		C		0.2209		-3.1270		-0.0518		C.ar		1		UNL1		0.0651
11		C		-1.1333		-2.8523		-0.1178		C.ar		1		UNL1		-0.1857
12		C		-1.4914		-1.4931		-0.2078		C.ar		1		UNL1		0.3413
13		C		-2.9006		-1.0532		-0.2887		C.2		1		UNL1		0.1476
14		N		-3.8048		-1.9786		-0.2961		N.2		1		UNL1		-0.2906
15		N		-5.1060		-1.6477		-0.4302		N.pl3		1		UNL1		-0.5372
16		C		-3.2126		0.4083		-0.3978		C.ar		1		UNL1		0.0628
17		C		-3.5030		0.9628		-1.6543		C.ar		1		UNL1		-0.1355
18		C		-3.8113		2.3144		-1.7967		C.ar		1		UNL1		-0.1346
19		C		-3.8418		3.1403		-0.6721		C.ar		1		UNL1		-0.1196
20		C		-3.5698		2.6137		0.5900		C.ar		1		UNL1		-0.1407
21		C		-3.2632		1.2587		0.7163		C.ar		1		UNL1		-0.0952
22		CL		-2.9404		0.6224		2.3248		Cl		1		UNL1		-0.0034
23		N		-0.5629		-0.5317		-0.2270		N.ar		1		UNL1		-0.5828
24		C		3.5791		1.4866		-0.1504		C.ar		1		UNL1		-0.2058
25		C		4.9526		1.6535		-0.1023		C.ar		1		UNL1		-0.1409
26		H		5.8692		-1.6187		0.0880		H		1		UNL1		0.1561
27		H		3.4115		-1.9111		0.0021		H		1		UNL1		0.1893
28		H		1.1253		1.0215		-0.2287		H		1		UNL1		0.3459
29		H		0.5776		-4.1532		0.0168		H		1		UNL1		0.1508
30		H		-1.8856		-3.6294		-0.1034		H		1		UNL1		0.1627
31		H		-5.3813		-0.7060		-0.1520		H		1		UNL1		0.3271
32		H		-5.7112		-2.3782		-0.0790		H		1		UNL1		0.3468
33		H		-3.4752		0.3149		-2.5258		H		1		UNL1		0.1545
34		H		-4.0251		2.7203		-2.7811		H		1		UNL1		0.1443
35		H		-4.0799		4.1956		-0.7714		H		1		UNL1		0.1457
36		H		-3.5942		3.2423		1.4738		H		1		UNL1		0.1601
37		H		2.9352		2.3606		-0.2170		H		1		UNL1		0.1344
38		H		5.3805		2.6505		-0.1312		H		1		UNL1		0.1551
@<TRIPOS>BOND
1		34		18		1
2		33		17		1
3		18		17		ar
4		18		19		ar
5		17		16		ar
6		35		19		1
7		19		20		ar
8		15		14		1
9		15		31		1
10		15		32		1
11		16		13		1
12		16		21		ar
13		14		13		2
14		13		12		1
15		28		7		1
16		23		12		ar
17		23		8		ar
18		37		24		1
19		12		11		ar
20		7		8		1
21		7		6		1
22		8		9		ar
23		24		6		ar
24		24		25		ar
25		38		25		1
26		11		30		1
27		11		10		ar
28		6		5		ar
29		25		3		ar
30		9		10		ar
31		10		29		1
32		5		27		1
33		5		4		ar
34		3		4		ar
35		3		2		1
36		4		26		1
37		2		1		3
38		20		21		ar
39		20		36		1
40		21		22		1

