@<TRIPOS>MOLECULE
MXD-2011-CMC-2225-9p
 38 40 0 0 0
SMALL
MULLIKEN_CHARGES
****
Gaussian 16 #p B3LYP/6-31G* opt
@<TRIPOS>ATOM
1		N		8.5113		-1.8874		-0.1978		N.1		1		UNL1		-0.4862
2		C		7.4038		-1.5286		-0.1809		C.1		1		UNL1		0.2267
3		C		6.0424		-1.0891		-0.1602		C.ar		1		UNL1		0.1306
4		C		5.7320		0.2733		-0.0164		C.ar		1		UNL1		-0.1536
5		C		4.4147		0.7141		0.0054		C.ar		1		UNL1		-0.1603
6		C		3.3643		-0.2148		-0.1183		C.ar		1		UNL1		0.3830
7		N		2.0110		0.1206		-0.1082		N.pl3		1		UNL1		-0.7688
8		C		1.3509		1.3278		0.0103		C.ar		1		UNL1		0.6964
9		N		2.0399		2.4658		0.1463		N.ar		1		UNL1		-0.4813
10		C		1.2907		3.5749		0.2538		C.ar		1		UNL1		0.0654
11		C		-0.0928		3.5728		0.2291		C.ar		1		UNL1		-0.1847
12		C		-0.7146		2.3178		0.0779		C.ar		1		UNL1		0.3225
13		C		-2.1914		2.1770		0.0283		C.2		1		UNL1		0.1657
14		N		-2.8658		3.2779		0.1448		N.2		1		UNL1		-0.3006
15		N		-4.2129		3.2738		0.0712		N.pl3		1		UNL1		-0.5399
16		C		-2.8111		0.8298		-0.1625		C.ar		1		UNL1		0.0696
17		C		-3.6614		0.5851		-1.2516		C.ar		1		UNL1		-0.1568
18		C		-4.2479		-0.6651		-1.4287		C.ar		1		UNL1		-0.1347
19		C		-4.0024		-1.6947		-0.5187		C.ar		1		UNL1		-0.0715
20		CL		-4.7587		-3.2466		-0.7750		Cl		1		UNL1		0.0238
21		C		-3.1575		-1.4602		0.5755		C.ar		1		UNL1		-0.0882
22		CL		-2.8137		-2.7130		1.7454		Cl		1		UNL1		0.0192
23		C		-2.5683		-0.2084		0.7458		C.ar		1		UNL1		-0.1274
24		N		0.0085		1.1990		-0.0305		N.ar		1		UNL1		-0.5872
25		C		3.6764		-1.5826		-0.2627		C.ar		1		UNL1		-0.2062
26		C		4.9914		-2.0154		-0.2837		C.ar		1		UNL1		-0.1407
27		H		6.5370		0.9951		0.0794		H		1		UNL1		0.1570
28		H		4.1834		1.7636		0.1159		H		1		UNL1		0.1892
29		H		1.3614		-0.6488		-0.2104		H		1		UNL1		0.3467
30		H		1.8428		4.5064		0.3650		H		1		UNL1		0.1530
31		H		-0.6756		4.4795		0.3164		H		1		UNL1		0.1643
32		H		-4.6065		4.0946		0.5135		H		1		UNL1		0.3488
33		H		-4.6947		2.4042		0.3010		H		1		UNL1		0.3260
34		H		-3.8581		1.3736		-1.9715		H		1		UNL1		0.1665
35		H		-4.8980		-0.8546		-2.2762		H		1		UNL1		0.1681
36		H		-1.9079		-0.0506		1.5899		H		1		UNL1		0.1705
37		H		2.8721		-2.3085		-0.3587		H		1		UNL1		0.1377
38		H		5.2144		-3.0716		-0.3955		H		1		UNL1		0.1573
@<TRIPOS>BOND
1		35		18		1
2		34		17		1
3		18		17		ar
4		18		19		ar
5		17		16		ar
6		20		19		1
7		19		21		ar
8		38		26		1
9		37		25		1
10		26		25		ar
11		26		3		ar
12		25		6		ar
13		29		7		1
14		1		2		3
15		2		3		1
16		16		13		1
17		16		23		ar
18		3		4		ar
19		6		7		1
20		6		5		ar
21		7		8		1
22		24		8		ar
23		24		12		ar
24		4		5		ar
25		4		27		1
26		5		28		1
27		8		9		ar
28		13		12		1
29		13		14		2
30		15		14		1
31		15		33		1
32		15		32		1
33		12		11		ar
34		9		10		ar
35		11		10		ar
36		11		31		1
37		10		30		1
38		21		23		ar
39		21		22		1
40		23		36		1

