@<TRIPOS>MOLECULE
MXD-2011-BMC-4704-7o
 52 54 0 0 0
SMALL
MULLIKEN_CHARGES
****
Gaussian 16 #p B3LYP/6-31G* opt
@<TRIPOS>ATOM
1		C		-2.5924		-0.0536		1.9694		C.3		1		UNL1		-0.5681
2		C		-3.5457		-0.4197		0.8551		C.ar		1		UNL1		0.1549
3		C		-4.9218		-0.3759		1.0673		C.ar		1		UNL1		-0.2118
4		C		-5.8119		-0.7124		0.0468		C.ar		1		UNL1		-0.1245
5		S		-7.5703		-0.6410		0.3603		S.O2		1		UNL1		1.1658
6		N		-7.9534		0.9965		0.0978		N.3		1		UNL1		-0.8146
7		O		-8.2354		-1.4429		-0.6722		O.2		1		UNL1		-0.5286
8		O		-7.7904		-0.8723		1.7916		O.2		1		UNL1		-0.5439
9		C		-5.3459		-1.1123		-1.2029		C.ar		1		UNL1		-0.1650
10		C		-3.9750		-1.1640		-1.4395		C.ar		1		UNL1		-0.1554
11		C		-3.0752		-0.8170		-0.4205		C.ar		1		UNL1		0.2958
12		N		-1.6807		-0.8605		-0.6135		N.am		1		UNL1		-0.7249
13		C		-0.9721		-1.1269		-1.7557		C.2		1		UNL1		0.5827
14		O		-1.4344		-1.4041		-2.8519		O.2		1		UNL1		-0.4927
15		C		0.5510		-1.1128		-1.5539		C.3		1		UNL1		-0.1460
16		O		0.9925		-0.4331		-0.3815		O.3		1		UNL1		-0.5462
17		C		1.1798		0.9337		-0.4346		C.ar		1		UNL1		0.3289
18		C		0.6629		1.7526		-1.4397		C.ar		1		UNL1		-0.1825
19		C		0.8780		3.1326		-1.3929		C.ar		1		UNL1		-0.1423
20		C		1.5940		3.6753		-0.3325		C.ar		1		UNL1		-0.0619
21		CL		1.8531		5.4121		-0.2529		Cl		1		UNL1		-0.0166
22		C		2.1060		2.8597		0.6779		C.ar		1		UNL1		-0.2027
23		C		1.9205		1.4798		0.6312		C.ar		1		UNL1		0.0748
24		C		2.4848		0.5713		1.7210		C.3		1		UNL1		0.0102
25		O		2.9713		1.3142		2.8408		O.3		1		UNL1		-0.6096
26		C		3.5596		-0.3929		1.2278		C.ar		1		UNL1		0.1516
27		C		3.7162		-1.6351		1.8548		C.ar		1		UNL1		-0.1665
28		C		4.7437		-2.4948		1.4828		C.ar		1		UNL1		-0.1290
29		C		5.6426		-2.1261		0.4778		C.ar		1		UNL1		-0.0764
30		CL		6.9166		-3.2351		0.0367		Cl		1		UNL1		0.0232
31		C		5.4993		-0.8834		-0.1511		C.ar		1		UNL1		-0.0764
32		CL		6.5908		-0.3687		-1.4148		Cl		1		UNL1		0.0218
33		C		4.4624		-0.0267		0.2268		C.ar		1		UNL1		-0.1922
34		H		-3.1439		0.2382		2.8666		H		1		UNL1		0.1809
35		H		-1.9425		-0.8942		2.2507		H		1		UNL1		0.1667
36		H		-1.9445		0.7908		1.6977		H		1		UNL1		0.1746
37		H		-5.3072		-0.0902		2.0408		H		1		UNL1		0.1700
38		H		-8.5197		1.3200		0.8803		H		1		UNL1		0.3569
39		H		-8.4629		1.0930		-0.7788		H		1		UNL1		0.3529
40		H		-6.0475		-1.3972		-1.9792		H		1		UNL1		0.1800
41		H		-3.5915		-1.4726		-2.4018		H		1		UNL1		0.1972
42		H		-1.1041		-0.6400		0.1885		H		1		UNL1		0.3613
43		H		0.8872		-2.1480		-1.4361		H		1		UNL1		0.2021
44		H		1.0142		-0.7055		-2.4572		H		1		UNL1		0.1906
45		H		0.0821		1.3390		-2.2567		H		1		UNL1		0.1671
46		H		0.4781		3.7732		-2.1712		H		1		UNL1		0.1657
47		H		2.6356		3.2934		1.5176		H		1		UNL1		0.1628
48		H		1.6601		-0.0271		2.1240		H		1		UNL1		0.1558
49		H		3.8937		1.5544		2.6565		H		1		UNL1		0.3962
50		H		3.0297		-1.9317		2.6430		H		1		UNL1		0.1495
51		H		4.8611		-3.4594		1.9650		H		1		UNL1		0.1676
52		H		4.3626		0.9258		-0.2834		H		1		UNL1		0.1700
@<TRIPOS>BOND
1		14		13		2
2		44		15		1
3		41		10		1
4		45		18		1
5		46		19		1
6		40		9		1
7		13		15		1
8		13		12		1
9		15		43		1
10		15		16		1
11		18		19		ar
12		18		17		ar
13		10		9		ar
14		10		11		ar
15		32		31		1
16		19		20		ar
17		9		4		ar
18		39		6		1
19		7		5		2
20		12		11		1
21		12		42		1
22		17		16		1
23		17		23		ar
24		11		2		ar
25		20		21		1
26		20		22		ar
27		52		33		1
28		31		33		ar
29		31		29		ar
30		30		29		1
31		4		5		1
32		4		3		ar
33		6		5		1
34		6		38		1
35		33		26		ar
36		5		8		2
37		29		28		ar
38		23		22		ar
39		23		24		1
40		22		47		1
41		2		3		ar
42		2		1		1
43		3		37		1
44		26		24		1
45		26		27		ar
46		28		27		ar
47		28		51		1
48		36		1		1
49		24		48		1
50		24		25		1
51		27		50		1
52		1		35		1
53		1		34		1
54		49		25		1

