@<TRIPOS>MOLECULE
MXD-2011-BMC-4601-10i
 57 60 0 0 0
SMALL
MULLIKEN_CHARGES
****
Gaussian 16 #p B3LYP/6-31G* opt
@<TRIPOS>ATOM
1		C		-1.8926		-1.2592		-1.3613		C.3		1		UNL1		-0.5718
2		C		-3.0454		-0.9536		-0.4327		C.ar		1		UNL1		0.1552
3		C		-4.3554		-0.9758		-0.9104		C.ar		1		UNL1		-0.2288
4		C		-5.4341		-0.7188		-0.0624		C.ar		1		UNL1		-0.1420
5		S		-7.1021		-0.7211		-0.7270		S.O2		1		UNL1		1.1621
6		N		-7.4503		0.8611		-1.2028		N.3		1		UNL1		-0.7853
7		O		-8.0154		-1.0025		0.3792		O.2		1		UNL1		-0.5264
8		O		-7.0809		-1.5013		-1.9638		O.2		1		UNL1		-0.5284
9		C		-5.2248		-0.4498		1.2895		C.ar		1		UNL1		-0.1736
10		C		-3.9273		-0.4179		1.7912		C.ar		1		UNL1		-0.1548
11		C		-2.8394		-0.6597		0.9374		C.ar		1		UNL1		0.2919
12		N		-1.5096		-0.6317		1.4022		N.am		1		UNL1		-0.7237
13		C		-1.0355		-0.3597		2.6592		C.2		1		UNL1		0.5882
14		O		-1.7023		-0.1172		3.6535		O.2		1		UNL1		-0.4927
15		C		0.4967		-0.4408		2.7626		C.3		1		UNL1		-0.1491
16		O		1.1737		-0.1929		1.5338		O.3		1		UNL1		-0.5533
17		C		1.2634		1.1005		1.0586		C.ar		1		UNL1		0.3448
18		C		0.8023		2.2328		1.7722		C.ar		1		UNL1		-0.1879
19		C		0.9347		3.4826		1.2112		C.ar		1		UNL1		-0.1985
20		C		1.5077		3.6670		-0.0718		C.ar		1		UNL1		0.1372
21		C		1.6431		4.9570		-0.6517		C.ar		1		UNL1		-0.1920
22		C		2.1887		5.1131		-1.9042		C.ar		1		UNL1		-0.1327
23		C		2.6191		3.9775		-2.6327		C.ar		1		UNL1		-0.1320
24		C		2.5037		2.7128		-2.1016		C.ar		1		UNL1		-0.1956
25		C		1.9489		2.5166		-0.8058		C.ar		1		UNL1		0.1145
26		C		1.8278		1.2289		-0.2014		C.ar		1		UNL1		-0.0871
27		C		2.2200		-0.0168		-0.9579		C.2		1		UNL1		0.3371
28		O		1.5423		-0.4074		-1.8977		O.2		1		UNL1		-0.4547
29		C		3.4657		-0.7556		-0.5619		C.ar		1		UNL1		0.0925
30		C		3.7625		-1.9491		-1.2365		C.ar		1		UNL1		-0.1473
31		C		4.9139		-2.6563		-0.9090		C.ar		1		UNL1		-0.0780
32		CL		5.2831		-4.1497		-1.7474		Cl		1		UNL1		0.0159
33		C		5.7860		-2.1990		0.0780		C.ar		1		UNL1		-0.1265
34		C		5.4874		-1.0017		0.7470		C.ar		1		UNL1		0.1292
35		C		6.3757		-0.5173		1.7648		C.1		1		UNL1		0.2468
36		N		7.0911		-0.1223		2.5921		N.1		1		UNL1		-0.4656
37		C		4.3281		-0.2793		0.4282		C.ar		1		UNL1		-0.1740
38		H		-1.1731		-0.4339		-1.4419		H		1		UNL1		0.1896
39		H		-2.2590		-1.4635		-2.3706		H		1		UNL1		0.1774
40		H		-1.3322		-2.1473		-1.0384		H		1		UNL1		0.1692
41		H		-4.5434		-1.2214		-1.9511		H		1		UNL1		0.1732
42		H		-7.4616		1.5064		-0.4167		H		1		UNL1		0.3469
43		H		-6.8447		1.1800		-1.9551		H		1		UNL1		0.3461
44		H		-6.0704		-0.2896		1.9503		H		1		UNL1		0.1780
45		H		-3.7439		-0.2178		2.8375		H		1		UNL1		0.1968
46		H		-0.7906		-0.7979		0.7091		H		1		UNL1		0.3659
47		H		0.7769		-1.4619		3.0397		H		1		UNL1		0.2014
48		H		0.8246		0.2276		3.5632		H		1		UNL1		0.1902
49		H		0.3326		2.1270		2.7430		H		1		UNL1		0.1673
50		H		0.5837		4.3536		1.7583		H		1		UNL1		0.1498
51		H		1.3053		5.8204		-0.0836		H		1		UNL1		0.1398
52		H		2.2890		6.1032		-2.3390		H		1		UNL1		0.1404
53		H		3.0429		4.1064		-3.6247		H		1		UNL1		0.1421
54		H		2.8250		1.8536		-2.6810		H		1		UNL1		0.1486
55		H		3.0857		-2.3009		-2.0069		H		1		UNL1		0.1944
56		H		6.6814		-2.7576		0.3252		H		1		UNL1		0.1894
57		H		4.1109		0.6464		0.9483		H		1		UNL1		0.1800
@<TRIPOS>BOND
1		53		23		1
2		54		24		1
3		23		24		ar
4		23		22		ar
5		39		1		1
6		52		22		1
7		24		25		ar
8		55		30		1
9		8		5		2
10		43		6		1
11		41		3		1
12		22		21		ar
13		28		27		2
14		32		31		1
15		38		1		1
16		1		40		1
17		1		2		1
18		30		31		ar
19		30		29		ar
20		6		5		1
21		6		42		1
22		27		29		1
23		27		26		1
24		3		2		ar
25		3		4		ar
26		31		33		ar
27		25		26		ar
28		25		20		ar
29		5		4		1
30		5		7		2
31		21		51		1
32		21		20		ar
33		29		37		ar
34		2		11		ar
35		26		17		ar
36		20		19		ar
37		4		9		ar
38		33		56		1
39		33		34		ar
40		37		34		ar
41		37		57		1
42		46		12		1
43		34		35		1
44		11		12		1
45		11		10		ar
46		17		16		1
47		17		18		ar
48		19		50		1
49		19		18		ar
50		9		10		ar
51		9		44		1
52		12		13		1
53		16		15		1
54		35		36		3
55		18		49		1
56		10		45		1
57		13		15		1
58		13		14		2
59		15		47		1
60		15		48		1

