@<TRIPOS>MOLECULE
MXD-2011-CMC-2225-9j
 38 40 0 0 0
SMALL
MULLIKEN_CHARGES
****
Gaussian 16 #p B3LYP/6-31G* opt
@<TRIPOS>ATOM
1		N		-9.2822		-0.8956		-0.1425		N.1		1		UNL1		-0.4874
2		C		-8.1476		-0.6342		-0.1317		C.1		1		UNL1		0.2258
3		C		-6.7540		-0.3114		-0.1193		C.ar		1		UNL1		0.1299
4		C		-5.7941		-1.2916		0.1827		C.ar		1		UNL1		-0.1536
5		C		-4.4378		-0.9922		0.1979		C.ar		1		UNL1		-0.1608
6		C		-4.0059		0.3159		-0.0937		C.ar		1		UNL1		0.3842
7		N		-2.6733		0.7216		-0.1073		N.pl3		1		UNL1		-0.7681
8		C		-1.4880		0.0532		0.1347		C.ar		1		UNL1		0.6916
9		N		-1.5061		-1.2502		0.4571		N.ar		1		UNL1		-0.4788
10		C		-0.3027		-1.7918		0.6740		C.ar		1		UNL1		0.0690
11		C		0.8870		-1.0830		0.5762		C.ar		1		UNL1		-0.2159
12		C		0.7878		0.2775		0.2268		C.ar		1		UNL1		0.3202
13		C		1.9958		1.1344		0.1095		C.2		1		UNL1		0.1612
14		N		1.8009		2.4155		0.1038		N.2		1		UNL1		-0.2633
15		N		2.8506		3.2603		0.0453		N.pl3		1		UNL1		-0.5420
16		C		3.3469		0.4958		0.0142		C.ar		1		UNL1		0.0240
17		C		4.3276		0.7363		0.9905		C.ar		1		UNL1		-0.1586
18		C		5.5914		0.1533		0.9010		C.ar		1		UNL1		-0.1338
19		C		5.8817		-0.6777		-0.1806		C.ar		1		UNL1		-0.0624
20		CL		7.4710		-1.4145		-0.3024		Cl		1		UNL1		-0.0102
21		C		4.9297		-0.9321		-1.1678		C.ar		1		UNL1		-0.1342
22		C		3.6700		-0.3446		-1.0635		C.ar		1		UNL1		-0.1517
23		N		-0.4069		0.8383		0.0015		N.ar		1		UNL1		-0.5459
24		C		-4.9706		1.2997		-0.3964		C.ar		1		UNL1		-0.2057
25		C		-6.3211		0.9948		-0.4098		C.ar		1		UNL1		-0.1408
26		H		-6.1190		-2.3025		0.4086		H		1		UNL1		0.1561
27		H		-3.7056		-1.7515		0.4315		H		1		UNL1		0.1879
28		H		-2.5043		1.6942		-0.3320		H		1		UNL1		0.3479
29		H		-0.2992		-2.8469		0.9428		H		1		UNL1		0.1521
30		H		1.8395		-1.5575		0.7740		H		1		UNL1		0.1540
31		H		2.5664		4.1749		-0.2807		H		1		UNL1		0.3476
32		H		3.7176		2.9176		-0.3697		H		1		UNL1		0.3216
33		H		4.0976		1.3828		1.8325		H		1		UNL1		0.1655
34		H		6.3413		0.3375		1.6628		H		1		UNL1		0.1643
35		H		5.1723		-1.5789		-2.0043		H		1		UNL1		0.1641
36		H		2.9260		-0.5429		-1.8301		H		1		UNL1		0.1549
37		H		-4.6481		2.3135		-0.6226		H		1		UNL1		0.1357
38		H		-7.0497		1.7640		-0.6448		H		1		UNL1		0.1558
@<TRIPOS>BOND
1		35		21		1
2		36		22		1
3		21		22		ar
4		21		19		ar
5		22		16		ar
6		38		25		1
7		37		24		1
8		25		24		ar
9		25		3		ar
10		24		6		ar
11		32		15		1
12		28		7		1
13		20		19		1
14		31		15		1
15		19		18		ar
16		1		2		3
17		2		3		1
18		3		4		ar
19		7		6		1
20		7		8		1
21		6		5		ar
22		23		8		ar
23		23		12		ar
24		16		13		1
25		16		17		ar
26		15		14		1
27		14		13		2
28		13		12		1
29		8		9		ar
30		4		5		ar
31		4		26		1
32		5		27		1
33		12		11		ar
34		9		10		ar
35		11		10		ar
36		11		30		1
37		10		29		1
38		18		17		ar
39		18		34		1
40		17		33		1

