@<TRIPOS>MOLECULE
MXD-2011-CMC-2225-9b
 41 43 0 0 0
SMALL
MULLIKEN_CHARGES
****
Gaussian 16 #p B3LYP/6-31G* opt
@<TRIPOS>ATOM
1		C		-3.7115		-0.3094		2.3329		C.3		1		UNL1		-0.5340
2		C		-4.4623		-0.4026		1.0235		C.ar		1		UNL1		0.1630
3		C		-5.7133		-1.0306		0.9685		C.ar		1		UNL1		-0.1944
4		C		-6.4239		-1.1366		-0.2276		C.ar		1		UNL1		-0.1177
5		C		-5.8919		-0.6044		-1.4018		C.ar		1		UNL1		-0.1373
6		C		-4.6486		0.0267		-1.3666		C.ar		1		UNL1		-0.1456
7		C		-3.9219		0.1266		-0.1703		C.ar		1		UNL1		-0.0520
8		C		-2.5974		0.8346		-0.1758		C.2		1		UNL1		0.1546
9		N		-2.4888		2.1266		-0.1688		N.2		1		UNL1		-0.2655
10		N		-3.6023		2.8827		-0.2010		N.pl3		1		UNL1		-0.5392
11		C		-1.3416		0.0488		-0.2110		C.ar		1		UNL1		0.3319
12		C		-1.3677		-1.3515		-0.3650		C.ar		1		UNL1		-0.2199
13		C		-0.1418		-2.0018		-0.3876		C.ar		1		UNL1		0.0678
14		N		1.0326		-1.3710		-0.2757		N.ar		1		UNL1		-0.4807
15		C		0.9442		-0.0381		-0.1381		C.ar		1		UNL1		0.6907
16		N		2.0941		0.7212		-0.0185		N.pl3		1		UNL1		-0.7685
17		C		3.4466		0.3908		-0.0071		C.ar		1		UNL1		0.3846
18		C		4.3591		1.4582		0.1315		C.ar		1		UNL1		-0.2059
19		C		5.7246		1.2315		0.1550		C.ar		1		UNL1		-0.1410
20		C		6.2266		-0.0774		0.0400		C.ar		1		UNL1		0.1295
21		C		7.6362		-0.3194		0.0639		C.1		1		UNL1		0.2252
22		N		8.7839		-0.5150		0.0838		N.1		1		UNL1		-0.4885
23		C		5.3189		-1.1407		-0.0982		C.ar		1		UNL1		-0.1538
24		C		3.9478		-0.9202		-0.1225		C.ar		1		UNL1		-0.1610
25		N		-0.1761		0.6991		-0.0947		N.ar		1		UNL1		-0.5508
26		H		-4.3360		-0.6431		3.1670		H		1		UNL1		0.1576
27		H		-2.8087		-0.9326		2.3209		H		1		UNL1		0.1748
28		H		-3.3838		0.7151		2.5418		H		1		UNL1		0.1668
29		H		-6.1358		-1.4425		1.8820		H		1		UNL1		0.1308
30		H		-7.3918		-1.6305		-0.2394		H		1		UNL1		0.1367
31		H		-6.4382		-0.6786		-2.3379		H		1		UNL1		0.1379
32		H		-4.2261		0.4479		-2.2751		H		1		UNL1		0.1486
33		H		-4.4799		2.4660		0.1094		H		1		UNL1		0.3238
34		H		-3.4306		3.8220		0.1311		H		1		UNL1		0.3452
35		H		-2.2967		-1.8972		-0.4715		H		1		UNL1		0.1559
36		H		-0.0895		-3.0833		-0.5036		H		1		UNL1		0.1500
37		H		1.8728		1.7049		0.0727		H		1		UNL1		0.3475
38		H		3.9832		2.4748		0.2210		H		1		UNL1		0.1353
39		H		6.4121		2.0645		0.2621		H		1		UNL1		0.1550
40		H		5.6970		-2.1544		-0.1878		H		1		UNL1		0.1552
41		H		3.2559		-1.7430		-0.2295		H		1		UNL1		0.1877
@<TRIPOS>BOND
1		31		5		1
2		32		6		1
3		5		6		ar
4		5		4		ar
5		6		7		ar
6		36		13		1
7		35		12		1
8		13		12		ar
9		13		14		ar
10		12		11		ar
11		14		15		ar
12		30		4		1
13		41		24		1
14		4		3		ar
15		11		8		1
16		11		25		ar
17		10		9		1
18		10		33		1
19		10		34		1
20		40		23		1
21		8		7		1
22		8		9		2
23		7		2		ar
24		15		25		ar
25		15		16		1
26		24		23		ar
27		24		17		ar
28		23		20		ar
29		16		17		1
30		16		37		1
31		17		18		ar
32		20		21		1
33		20		19		ar
34		21		22		3
35		18		19		ar
36		18		38		1
37		19		39		1
38		3		2		ar
39		3		29		1
40		2		1		1
41		27		1		1
42		1		28		1
43		1		26		1

