@<TRIPOS>MOLECULE
MXD-2011-BMC-4601-10v
 63 66 0 0 0
SMALL
MULLIKEN_CHARGES
****
Gaussian 16 #p B3LYP/6-31G* opt
@<TRIPOS>ATOM
1		C		5.1735		-4.4360		2.4810		C.3		1		UNL1		-0.5317
2		C		4.9593		-3.2912		1.5179		C.ar		1		UNL1		0.1798
3		C		6.0134		-2.8336		0.7108		C.ar		1		UNL1		-0.2166
4		C		5.8602		-1.7744		-0.1905		C.ar		1		UNL1		0.1784
5		C		7.0081		-1.3322		-1.0688		C.3		1		UNL1		-0.5309
6		C		4.6106		-1.1506		-0.2722		C.ar		1		UNL1		-0.2331
7		C		3.5402		-1.5858		0.5204		C.ar		1		UNL1		0.0931
8		C		2.1942		-0.9570		0.4372		C.2		1		UNL1		0.3327
9		O		1.2288		-1.4264		1.0290		O.2		1		UNL1		-0.4634
10		C		1.9958		0.2891		-0.4044		C.ar		1		UNL1		-0.0884
11		C		1.2555		0.1798		-1.5752		C.ar		1		UNL1		0.3540
12		O		0.8856		-1.0955		-1.9222		O.3		1		UNL1		-0.5366
13		C		0.0148		-1.2994		-3.0289		C.3		1		UNL1		-0.1481
14		C		-1.4477		-0.9097		-2.7611		C.2		1		UNL1		0.5879
15		O		-2.1638		-0.5784		-3.6948		O.2		1		UNL1		-0.4955
16		N		-1.8208		-1.0305		-1.4476		N.am		1		UNL1		-0.7263
17		C		-3.0837		-0.7883		-0.8658		C.ar		1		UNL1		0.2891
18		C		-4.1575		-0.2807		-1.6152		C.ar		1		UNL1		-0.1554
19		C		-5.3848		-0.0443		-1.0037		C.ar		1		UNL1		-0.1740
20		C		-5.5389		-0.3103		0.3559		C.ar		1		UNL1		-0.1417
21		S		-7.1048		0.0321		1.1639		S.O2		1		UNL1		1.1613
22		N		-7.0474		1.6318		1.7025		N.3		1		UNL1		-0.7853
23		O		-8.1450		0.0071		0.1367		O.2		1		UNL1		-0.5271
24		O		-7.1617		-0.7826		2.3772		O.2		1		UNL1		-0.5289
25		C		-4.4796		-0.8319		1.1002		C.ar		1		UNL1		-0.2292
26		C		-3.2407		-1.0835		0.5107		C.ar		1		UNL1		0.1525
27		C		-2.1206		-1.6815		1.3285		C.3		1		UNL1		-0.5700
28		C		0.9355		1.3229		-2.3495		C.ar		1		UNL1		-0.1882
29		C		1.3693		2.5626		-1.9421		C.ar		1		UNL1		-0.1956
30		C		2.1298		2.7252		-0.7570		C.ar		1		UNL1		0.1390
31		C		2.5685		4.0022		-0.3318		C.ar		1		UNL1		-0.2169
32		C		3.2929		4.1484		0.8387		C.ar		1		UNL1		0.1344
33		C		3.7344		5.4450		1.2595		C.1		1		UNL1		0.2346
34		N		4.0976		6.4946		1.6065		N.1		1		UNL1		-0.4762
35		C		3.5975		3.0031		1.6308		C.ar		1		UNL1		-0.1426
36		C		3.1836		1.7556		1.2368		C.ar		1		UNL1		-0.2033
37		C		2.4449		1.5676		0.0313		C.ar		1		UNL1		0.1235
38		C		3.7226		-2.6586		1.4086		C.ar		1		UNL1		-0.2222
39		H		4.2439		-4.7075		2.9895		H		1		UNL1		0.1646
40		H		5.9121		-4.1768		3.2498		H		1		UNL1		0.1684
41		H		5.5471		-5.3279		1.9638		H		1		UNL1		0.1670
42		H		6.9846		-3.3201		0.7892		H		1		UNL1		0.1281
43		H		7.0616		-1.9356		-1.9845		H		1		UNL1		0.1720
44		H		6.8993		-0.2863		-1.3732		H		1		UNL1		0.1632
45		H		7.9694		-1.4373		-0.5550		H		1		UNL1		0.1637
46		H		4.4691		-0.3241		-0.9626		H		1		UNL1		0.1406
47		H		0.0621		-2.3744		-3.2284		H		1		UNL1		0.2008
48		H		0.3490		-0.7743		-3.9278		H		1		UNL1		0.1859
49		H		-1.0787		-1.3088		-0.8145		H		1		UNL1		0.3740
50		H		-4.0228		-0.0902		-2.6703		H		1		UNL1		0.1961
51		H		-6.2234		0.3237		-1.5857		H		1		UNL1		0.1767
52		H		-6.9742		2.2939		0.9338		H		1		UNL1		0.3466
53		H		-6.3255		1.7760		2.4045		H		1		UNL1		0.3459
54		H		-4.6327		-1.0711		2.1480		H		1		UNL1		0.1719
55		H		-1.8163		-2.6637		0.9422		H		1		UNL1		0.1705
56		H		-2.4410		-1.8269		2.3636		H		1		UNL1		0.1703
57		H		-1.2190		-1.0579		1.3477		H		1		UNL1		0.1972
58		H		0.3393		1.2341		-3.2499		H		1		UNL1		0.1708
59		H		1.1218		3.4402		-2.5332		H		1		UNL1		0.1541
60		H		2.3279		4.8735		-0.9337		H		1		UNL1		0.1632
61		H		4.1590		3.1314		2.5503		H		1		UNL1		0.1621
62		H		3.4225		0.8971		1.8553		H		1		UNL1		0.1581
63		H		2.8778		-2.9808		2.0093		H		1		UNL1		0.1557
@<TRIPOS>BOND
1		48		13		1
2		15		14		2
3		58		28		1
4		47		13		1
5		13		14		1
6		13		12		1
7		14		16		1
8		50		18		1
9		59		29		1
10		28		29		ar
11		28		11		ar
12		43		5		1
13		29		30		ar
14		12		11		1
15		18		19		ar
16		18		17		ar
17		51		19		1
18		11		10		ar
19		16		17		1
20		16		49		1
21		44		5		1
22		5		45		1
23		5		4		1
24		19		20		ar
25		46		6		1
26		60		31		1
27		17		26		ar
28		30		31		ar
29		30		37		ar
30		10		37		ar
31		10		8		1
32		31		32		ar
33		6		4		ar
34		6		7		ar
35		4		3		ar
36		37		36		ar
37		23		21		2
38		20		25		ar
39		20		21		1
40		8		7		1
41		8		9		2
42		26		25		ar
43		26		27		1
44		7		38		ar
45		3		42		1
46		3		2		ar
47		32		33		1
48		32		35		ar
49		52		22		1
50		55		27		1
51		25		54		1
52		21		22		1
53		21		24		2
54		36		35		ar
55		36		62		1
56		33		34		3
57		27		57		1
58		27		56		1
59		38		2		ar
60		38		63		1
61		2		1		1
62		35		61		1
63		22		53		1
64		41		1		1
65		1		39		1
66		1		40		1

