@<TRIPOS>MOLECULE
MXD-2011-BMC-4601-10p
 62 65 0 0 0
SMALL
MULLIKEN_CHARGES
****
Gaussian 16 #p B3LYP/6-31G* opt
@<TRIPOS>ATOM
1		C		-0.1420		2.7183		3.0221		C.3		1		UNL1		-0.5403
2		C		0.8553		3.3333		2.0685		C.ar		1		UNL1		0.1732
3		C		1.1081		4.7073		2.0468		C.ar		1		UNL1		-0.1693
4		C		2.0326		5.2525		1.1554		C.ar		1		UNL1		-0.1894
5		C		2.7504		4.4648		0.2506		C.ar		1		UNL1		0.1288
6		C		3.7296		5.1406		-0.6799		C.3		1		UNL1		-0.4991
7		C		2.4970		3.0660		0.2617		C.ar		1		UNL1		0.0700
8		C		3.2285		2.1383		-0.6476		C.2		1		UNL1		0.3219
9		O		4.2185		2.4857		-1.2831		O.2		1		UNL1		-0.4757
10		C		2.7864		0.6891		-0.7688		C.ar		1		UNL1		-0.0609
11		C		1.5469		0.3689		-1.3063		C.ar		1		UNL1		0.3620
12		O		0.7547		1.4364		-1.6580		O.3		1		UNL1		-0.5108
13		C		-0.5381		1.2271		-2.1558		C.3		1		UNL1		-0.1432
14		C		-1.5302		0.7445		-1.0752		C.2		1		UNL1		0.6036
15		O		-1.2359		0.6902		0.1050		O.2		1		UNL1		-0.4732
16		N		-2.7576		0.4098		-1.6084		N.am		1		UNL1		-0.7327
17		C		-3.9354		-0.0050		-0.9514		C.ar		1		UNL1		0.2951
18		C		-3.9944		-0.1561		0.4432		C.ar		1		UNL1		-0.1534
19		C		-5.1787		-0.5643		1.0488		C.ar		1		UNL1		-0.1720
20		C		-6.3003		-0.8307		0.2647		C.ar		1		UNL1		-0.1414
21		S		-7.8244		-1.3878		1.0356		S.O2		1		UNL1		1.1642
22		N		-7.7318		-3.0656		1.1748		N.3		1		UNL1		-0.7852
23		O		-8.9077		-1.1359		0.0863		O.2		1		UNL1		-0.5275
24		O		-7.8283		-0.8844		2.4076		O.2		1		UNL1		-0.5243
25		C		-6.2482		-0.6738		-1.1209		C.ar		1		UNL1		-0.2279
26		C		-5.0752		-0.2604		-1.7517		C.ar		1		UNL1		0.1562
27		C		-5.0460		-0.0842		-3.2529		C.3		1		UNL1		-0.5684
28		C		1.1594		-0.9781		-1.5052		C.ar		1		UNL1		-0.1766
29		C		2.0177		-1.9958		-1.1642		C.ar		1		UNL1		-0.1986
30		C		3.2971		-1.7249		-0.6200		C.ar		1		UNL1		0.1372
31		C		4.1799		-2.7793		-0.2628		C.ar		1		UNL1		-0.2230
32		C		5.4137		-2.4892		0.2610		C.ar		1		UNL1		0.0812
33		BR		6.6052		-3.9050		0.7454		Br		1		UNL1		-0.1332
34		C		5.8308		-1.1523		0.4519		C.ar		1		UNL1		-0.1535
35		C		4.9915		-0.1175		0.1109		C.ar		1		UNL1		-0.1863
36		C		3.6971		-0.3609		-0.4328		C.ar		1		UNL1		0.1063
37		C		1.5611		2.5366		1.1644		C.ar		1		UNL1		-0.2289
38		H		-0.7755		3.4824		3.4846		H		1		UNL1		0.1502
39		H		-0.7883		2.0041		2.5007		H		1		UNL1		0.1831
40		H		0.3610		2.1736		3.8319		H		1		UNL1		0.1626
41		H		0.5733		5.3638		2.7300		H		1		UNL1		0.1257
42		H		2.2016		6.3268		1.1596		H		1		UNL1		0.1248
43		H		4.7604		4.8399		-0.4691		H		1		UNL1		0.1757
44		H		3.5512		4.8757		-1.7264		H		1		UNL1		0.1692
45		H		3.6540		6.2282		-0.5746		H		1		UNL1		0.1360
46		H		-0.5401		0.5406		-3.0163		H		1		UNL1		0.1608
47		H		-0.8673		2.2081		-2.5165		H		1		UNL1		0.1987
48		H		-2.8388		0.5038		-2.6119		H		1		UNL1		0.3429
49		H		-3.1165		0.0560		1.0361		H		1		UNL1		0.1993
50		H		-5.2355		-0.6524		2.1289		H		1		UNL1		0.1799
51		H		-6.9902		-3.3656		1.8025		H		1		UNL1		0.3491
52		H		-7.6926		-3.5319		0.2721		H		1		UNL1		0.3471
53		H		-7.1425		-0.8529		-1.7096		H		1		UNL1		0.1753
54		H		-6.0207		-0.3215		-3.6863		H		1		UNL1		0.1855
55		H		-4.8097		0.9488		-3.5447		H		1		UNL1		0.1701
56		H		-4.3104		-0.7436		-3.7351		H		1		UNL1		0.1648
57		H		0.1856		-1.2199		-1.9150		H		1		UNL1		0.1304
58		H		1.7155		-3.0296		-1.3099		H		1		UNL1		0.1402
59		H		3.8676		-3.8086		-0.4075		H		1		UNL1		0.1507
60		H		6.8139		-0.9513		0.8632		H		1		UNL1		0.1559
61		H		5.3298		0.9029		0.2436		H		1		UNL1		0.1642
62		H		1.3694		1.4690		1.1553		H		1		UNL1		0.1527
@<TRIPOS>BOND
1		56		27		1
2		54		27		1
3		55		27		1
4		27		26		1
5		46		13		1
6		48		16		1
7		47		13		1
8		13		12		1
9		13		14		1
10		57		28		1
11		26		25		ar
12		26		17		ar
13		44		6		1
14		53		25		1
15		12		11		1
16		16		14		1
17		16		17		1
18		28		11		ar
19		28		29		ar
20		58		29		1
21		11		10		ar
22		9		8		2
23		29		30		ar
24		25		20		ar
25		14		15		2
26		17		18		ar
27		10		8		1
28		10		36		ar
29		6		45		1
30		6		43		1
31		6		5		1
32		8		7		1
33		30		36		ar
34		30		31		ar
35		36		35		ar
36		59		31		1
37		31		32		ar
38		23		21		2
39		35		61		1
40		35		34		ar
41		5		7		ar
42		5		4		ar
43		32		34		ar
44		32		33		1
45		7		37		ar
46		20		21		1
47		20		19		ar
48		52		22		1
49		18		49		1
50		18		19		ar
51		34		60		1
52		21		22		1
53		21		24		2
54		19		50		1
55		62		37		1
56		4		42		1
57		4		3		ar
58		37		2		ar
59		22		51		1
60		3		2		ar
61		3		41		1
62		2		1		1
63		39		1		1
64		1		38		1
65		1		40		1

