@<TRIPOS>MOLECULE
MXD-2011-BMC-4601-10l
 56 59 0 0 0
SMALL
MULLIKEN_CHARGES
****
Gaussian 16 #p B3LYP/6-31G* opt
@<TRIPOS>ATOM
1		C		2.7412		-1.4431		1.7210		C.3		1		UNL1		-0.5693
2		C		3.7709		-0.9321		0.7412		C.ar		1		UNL1		0.1526
3		C		4.9661		-0.3831		1.2054		C.ar		1		UNL1		-0.2293
4		C		5.9451		0.0657		0.3175		C.ar		1		UNL1		-0.1420
5		S		7.4517		0.8010		0.9587		S.O2		1		UNL1		1.1611
6		N		7.1817		2.4644		1.0768		N.3		1		UNL1		-0.7852
7		O		7.6167		0.3375		2.3360		O.2		1		UNL1		-0.5291
8		O		8.4861		0.6490		-0.0634		O.2		1		UNL1		-0.5272
9		C		5.7546		-0.0418		-1.0593		C.ar		1		UNL1		-0.1739
10		C		4.5687		-0.5802		-1.5488		C.ar		1		UNL1		-0.1554
11		C		3.5734		-1.0161		-0.6589		C.ar		1		UNL1		0.2903
12		N		2.3533		-1.5565		-1.1164		N.am		1		UNL1		-0.7262
13		C		1.9560		-1.8047		-2.4050		C.2		1		UNL1		0.5879
14		O		2.6135		-1.6192		-3.4186		O.2		1		UNL1		-0.4956
15		C		0.5563		-2.4311		-2.5097		C.3		1		UNL1		-0.1473
16		O		-0.3183		-2.0857		-1.4425		O.3		1		UNL1		-0.5413
17		C		-0.8585		-0.8217		-1.3919		C.ar		1		UNL1		0.3515
18		C		-0.7026		0.1373		-2.4224		C.ar		1		UNL1		-0.1881
19		C		-1.3026		1.3696		-2.3019		C.ar		1		UNL1		-0.1966
20		C		-2.0747		1.7083		-1.1631		C.ar		1		UNL1		0.1401
21		C		-2.6839		2.9851		-1.0352		C.ar		1		UNL1		-0.2208
22		C		-3.4075		3.2899		0.0904		C.ar		1		UNL1		0.0799
23		BR		-4.2284		5.0056		0.2657		Br		1		UNL1		-0.1199
24		C		-3.5573		2.3539		1.1399		C.ar		1		UNL1		-0.1489
25		C		-2.9764		1.1117		1.0360		C.ar		1		UNL1		-0.2008
26		C		-2.2245		0.7407		-0.1155		C.ar		1		UNL1		0.1213
27		C		-1.6035		-0.5347		-0.2560		C.ar		1		UNL1		-0.0940
28		C		-1.6410		-1.5627		0.8533		C.2		1		UNL1		0.3377
29		O		-0.6356		-1.7667		1.5213		O.2		1		UNL1		-0.4549
30		C		-2.8996		-2.3262		1.1119		C.ar		1		UNL1		0.0804
31		C		-2.9493		-3.1823		2.2234		C.ar		1		UNL1		-0.1502
32		C		-4.0981		-3.9225		2.4812		C.ar		1		UNL1		-0.1319
33		C		-5.2067		-3.8266		1.6352		C.ar		1		UNL1		-0.1175
34		C		-5.1469		-2.9778		0.5297		C.ar		1		UNL1		-0.0740
35		CL		-6.5339		-2.8572		-0.5418		Cl		1		UNL1		-0.0070
36		C		-4.0078		-2.2243		0.2586		C.ar		1		UNL1		-0.1676
37		H		1.7645		-0.9560		1.6145		H		1		UNL1		0.1949
38		H		2.5703		-2.5218		1.6042		H		1		UNL1		0.1709
39		H		3.0786		-1.2793		2.7479		H		1		UNL1		0.1706
40		H		5.1515		-0.3282		2.2737		H		1		UNL1		0.1717
41		H		7.0206		2.8924		0.1682		H		1		UNL1		0.3464
42		H		6.4459		2.6878		1.7426		H		1		UNL1		0.3456
43		H		6.5357		0.2723		-1.7438		H		1		UNL1		0.1765
44		H		4.4070		-0.6802		-2.6126		H		1		UNL1		0.1964
45		H		1.6592		-1.7673		-0.4078		H		1		UNL1		0.3731
46		H		0.6534		-3.5198		-2.4530		H		1		UNL1		0.1999
47		H		0.1419		-2.1803		-3.4900		H		1		UNL1		0.1864
48		H		-0.1035		-0.0817		-3.2985		H		1		UNL1		0.1689
49		H		-1.1801		2.1058		-3.0918		H		1		UNL1		0.1517
50		H		-2.5679		3.7131		-1.8316		H		1		UNL1		0.1590
51		H		-4.1280		2.6245		2.0213		H		1		UNL1		0.1612
52		H		-3.0936		0.4061		1.8522		H		1		UNL1		0.1523
53		H		-2.0778		-3.2503		2.8655		H		1		UNL1		0.1705
54		H		-4.1401		-4.5828		3.3425		H		1		UNL1		0.1536
55		H		-6.1059		-4.4023		1.8275		H		1		UNL1		0.1669
56		H		-3.9816		-1.5722		-0.6067		H		1		UNL1		0.1746
@<TRIPOS>BOND
1		47		15		1
2		14		13		2
3		48		18		1
4		49		19		1
5		44		10		1
6		15		46		1
7		15		13		1
8		15		16		1
9		18		19		ar
10		18		17		ar
11		13		12		1
12		19		20		ar
13		50		21		1
14		43		9		1
15		10		9		ar
16		10		11		ar
17		16		17		1
18		17		27		ar
19		20		21		ar
20		20		26		ar
21		12		11		1
22		12		45		1
23		9		4		ar
24		21		22		ar
25		11		2		ar
26		56		36		1
27		35		34		1
28		27		26		ar
29		27		28		1
30		26		25		ar
31		8		5		2
32		22		23		1
33		22		24		ar
34		41		6		1
35		36		34		ar
36		36		30		ar
37		4		5		1
38		4		3		ar
39		34		33		ar
40		2		3		ar
41		2		1		1
42		28		30		1
43		28		29		2
44		5		6		1
45		5		7		2
46		25		24		ar
47		25		52		1
48		6		42		1
49		30		31		ar
50		24		51		1
51		3		40		1
52		38		1		1
53		37		1		1
54		33		55		1
55		33		32		ar
56		1		39		1
57		31		32		ar
58		31		53		1
59		32		54		1

