@<TRIPOS>MOLECULE
MXD-2011-BMC-4704-7f
 52 54 0 0 0
SMALL
MULLIKEN_CHARGES
****
Gaussian 16 #p B3LYP/6-31G* opt
@<TRIPOS>ATOM
1		C		3.3288		-3.0358		-0.4423		C.3		1		UNL1		-0.5474
2		C		3.6590		-1.5632		-0.4633		C.ar		1		UNL1		0.1732
3		C		4.8352		-1.0856		0.1185		C.ar		1		UNL1		-0.2272
4		C		5.1310		0.2789		0.1233		C.ar		1		UNL1		-0.1396
5		S		6.6602		0.8538		0.8818		S.O2		1		UNL1		1.1700
6		N		7.8454		0.8442		-0.3112		N.3		1		UNL1		-0.7858
7		O		6.4624		2.2598		1.2268		O.2		1		UNL1		-0.5230
8		O		7.0690		-0.1625		1.8486		O.2		1		UNL1		-0.5221
9		C		4.2616		1.2009		-0.4573		C.ar		1		UNL1		-0.1676
10		C		3.0962		0.7386		-1.0624		C.ar		1		UNL1		-0.1474
11		C		2.7808		-0.6264		-1.0536		C.ar		1		UNL1		0.2594
12		N		1.5958		-1.1006		-1.6667		N.am		1		UNL1		-0.7039
13		C		0.2979		-0.6519		-1.5822		C.2		1		UNL1		0.5903
14		O		-0.5890		-1.2133		-2.2096		O.2		1		UNL1		-0.4803
15		C		-0.0074		0.5459		-0.6719		C.3		1		UNL1		-0.1263
16		O		-1.3533		0.3982		-0.2802		O.3		1		UNL1		-0.5212
17		C		-2.1492		1.5066		-0.1299		C.ar		1		UNL1		0.3206
18		C		-1.6689		2.7480		0.2842		C.ar		1		UNL1		-0.1755
19		C		-2.5509		3.8215		0.4378		C.ar		1		UNL1		-0.1433
20		C		-3.9029		3.6286		0.1806		C.ar		1		UNL1		-0.0601
21		CL		-5.0259		4.9699		0.3693		Cl		1		UNL1		-0.0236
22		C		-4.3843		2.3837		-0.2326		C.ar		1		UNL1		-0.2151
23		C		-3.5171		1.3045		-0.3928		C.ar		1		UNL1		0.1321
24		C		-4.0262		-0.0495		-0.8912		C.3		1		UNL1		0.0039
25		O		-3.4323		-0.4217		-2.1187		O.3		1		UNL1		-0.6593
26		C		-3.9426		-1.1479		0.1790		C.ar		1		UNL1		0.1343
27		C		-4.3060		-0.8955		1.5078		C.ar		1		UNL1		-0.1745
28		C		-4.2721		-1.9164		2.4569		C.ar		1		UNL1		-0.1338
29		C		-3.8723		-3.2055		2.1011		C.ar		1		UNL1		-0.1297
30		C		-3.5158		-3.4442		0.7760		C.ar		1		UNL1		-0.0676
31		CL		-3.0042		-5.0661		0.3037		Cl		1		UNL1		-0.0404
32		C		-3.5508		-2.4388		-0.1875		C.ar		1		UNL1		-0.1872
33		H		4.0532		-3.5867		0.1630		H		1		UNL1		0.1793
34		H		2.3305		-3.2177		-0.0282		H		1		UNL1		0.1884
35		H		3.3464		-3.4760		-1.4493		H		1		UNL1		0.1669
36		H		5.5124		-1.7776		0.6098		H		1		UNL1		0.1806
37		H		8.0664		-0.0888		-0.6486		H		1		UNL1		0.3514
38		H		7.6660		1.5080		-1.0596		H		1		UNL1		0.3515
39		H		4.4929		2.2605		-0.4336		H		1		UNL1		0.1846
40		H		2.4368		1.4394		-1.5637		H		1		UNL1		0.1527
41		H		1.6593		-1.9612		-2.2007		H		1		UNL1		0.3500
42		H		0.6599		0.5707		0.1979		H		1		UNL1		0.1801
43		H		0.1349		1.4749		-1.2408		H		1		UNL1		0.1758
44		H		-0.6158		2.8859		0.5087		H		1		UNL1		0.1428
45		H		-2.1862		4.7902		0.7616		H		1		UNL1		0.1589
46		H		-5.4419		2.2608		-0.4453		H		1		UNL1		0.1594
47		H		-5.0888		0.0855		-1.1321		H		1		UNL1		0.1594
48		H		-2.4806		-0.6023		-1.9757		H		1		UNL1		0.4456
49		H		-4.6118		0.1037		1.8050		H		1		UNL1		0.1344
50		H		-4.5553		-1.7095		3.4854		H		1		UNL1		0.1367
51		H		-3.8380		-4.0063		2.8320		H		1		UNL1		0.1491
52		H		-3.2784		-2.6482		-1.2146		H		1		UNL1		0.1703
@<TRIPOS>BOND
1		14		13		2
2		41		12		1
3		25		48		1
4		25		24		1
5		12		13		1
6		12		11		1
7		13		15		1
8		40		10		1
9		35		1		1
10		43		15		1
11		52		32		1
12		47		24		1
13		10		11		ar
14		10		9		ar
15		38		6		1
16		11		2		ar
17		24		23		1
18		24		26		1
19		15		16		1
20		15		42		1
21		37		6		1
22		2		1		1
23		2		3		ar
24		9		39		1
25		9		4		ar
26		46		22		1
27		1		34		1
28		1		33		1
29		23		22		ar
30		23		17		ar
31		6		5		1
32		16		17		1
33		22		20		ar
34		32		26		ar
35		32		30		ar
36		17		18		ar
37		3		4		ar
38		3		36		1
39		4		5		1
40		26		27		ar
41		20		21		1
42		20		19		ar
43		18		19		ar
44		18		44		1
45		31		30		1
46		19		45		1
47		30		29		ar
48		5		7		2
49		5		8		2
50		27		49		1
51		27		28		ar
52		29		28		ar
53		29		51		1
54		28		50		1

