@<TRIPOS>MOLECULE
MXD-2011-BMC-4704-7e
 52 54 0 0 0
SMALL
MULLIKEN_CHARGES
****
Gaussian 16 #p B3LYP/6-31G* opt
@<TRIPOS>ATOM
1		C		2.0297		-1.6405		-1.9831		C.3		1		UNL1		-0.5656
2		C		2.8771		-0.7178		-1.1383		C.ar		1		UNL1		0.1520
3		C		4.0867		-1.1675		-0.6078		C.ar		1		UNL1		-0.2153
4		C		4.9090		-0.3106		0.1235		C.ar		1		UNL1		-0.1231
5		S		6.4494		-0.9295		0.7868		S.O2		1		UNL1		1.1651
6		N		5.9922		-1.6201		2.2761		N.3		1		UNL1		-0.8158
7		O		6.8939		-2.0491		-0.0500		O.2		1		UNL1		-0.5430
8		O		7.3086		0.2257		1.0678		O.2		1		UNL1		-0.5307
9		C		4.5549		1.0213		0.3261		C.ar		1		UNL1		-0.1663
10		C		3.3462		1.4869		-0.1823		C.ar		1		UNL1		-0.1374
11		C		2.5014		0.6251		-0.8967		C.ar		1		UNL1		0.2693
12		N		1.2532		1.0714		-1.3922		N.am		1		UNL1		-0.7260
13		C		0.9301		2.3526		-1.7637		C.2		1		UNL1		0.5774
14		O		1.6738		3.3203		-1.7241		O.2		1		UNL1		-0.4915
15		C		-0.4840		2.4948		-2.3491		C.3		1		UNL1		-0.1451
16		O		-1.4206		1.5637		-1.8213		O.3		1		UNL1		-0.5360
17		C		-1.9272		1.7509		-0.5575		C.ar		1		UNL1		0.3500
18		C		-1.9183		2.9698		0.1224		C.ar		1		UNL1		-0.1755
19		C		-2.4960		3.0678		1.3905		C.ar		1		UNL1		-0.1374
20		C		-3.0769		1.9456		1.9692		C.ar		1		UNL1		-0.0639
21		CL		-3.8075		2.0625		3.5638		Cl		1		UNL1		-0.0178
22		C		-3.0770		0.7200		1.3024		C.ar		1		UNL1		-0.1985
23		C		-2.5017		0.6073		0.0368		C.ar		1		UNL1		0.0615
24		C		-2.3436		-0.7337		-0.6678		C.3		1		UNL1		-0.0019
25		O		-0.9778		-1.1702		-0.5100		O.3		1		UNL1		-0.6187
26		C		-3.3387		-1.8027		-0.2348		C.ar		1		UNL1		0.1381
27		C		-2.9380		-2.8892		0.5516		C.ar		1		UNL1		-0.1796
28		C		-3.8412		-3.8736		0.9521		C.ar		1		UNL1		-0.1263
29		C		-5.1767		-3.7919		0.5608		C.ar		1		UNL1		-0.1226
30		C		-5.6020		-2.7288		-0.2354		C.ar		1		UNL1		-0.1305
31		C		-4.6860		-1.7530		-0.6237		C.ar		1		UNL1		-0.1199
32		CL		-5.2654		-0.4391		-1.6475		Cl		1		UNL1		-0.0092
33		H		2.5445		-2.5922		-2.1404		H		1		UNL1		0.1662
34		H		1.0563		-1.8573		-1.5275		H		1		UNL1		0.1944
35		H		1.8320		-1.2012		-2.9693		H		1		UNL1		0.1661
36		H		4.4079		-2.1877		-0.7919		H		1		UNL1		0.1686
37		H		6.3854		-2.5586		2.3240		H		1		UNL1		0.3553
38		H		6.3471		-1.0446		3.0379		H		1		UNL1		0.3520
39		H		5.2195		1.6866		0.8660		H		1		UNL1		0.1771
40		H		3.0585		2.5201		-0.0454		H		1		UNL1		0.1797
41		H		0.5134		0.3774		-1.4684		H		1		UNL1		0.3776
42		H		-0.4424		2.2789		-3.4215		H		1		UNL1		0.1954
43		H		-0.8011		3.5335		-2.2302		H		1		UNL1		0.1834
44		H		-1.4642		3.8522		-0.3125		H		1		UNL1		0.1621
45		H		-2.4906		4.0153		1.9184		H		1		UNL1		0.1648
46		H		-3.5286		-0.1478		1.7704		H		1		UNL1		0.1692
47		H		-2.4514		-0.5776		-1.7428		H		1		UNL1		0.1892
48		H		-0.7315		-1.0189		0.4177		H		1		UNL1		0.3998
49		H		-1.8921		-2.9727		0.8267		H		1		UNL1		0.1346
50		H		-3.4981		-4.7042		1.5618		H		1		UNL1		0.1426
51		H		-5.8890		-4.5537		0.8644		H		1		UNL1		0.1455
52		H		-6.6341		-2.6525		-0.5605		H		1		UNL1		0.1604
@<TRIPOS>BOND
1		42		15		1
2		35		1		1
3		15		43		1
4		15		16		1
5		15		13		1
6		33		1		1
7		1		34		1
8		1		2		1
9		16		17		1
10		13		14		2
11		13		12		1
12		47		24		1
13		32		31		1
14		41		12		1
15		12		11		1
16		2		11		ar
17		2		3		ar
18		11		10		ar
19		36		3		1
20		24		25		1
21		24		26		1
22		24		23		1
23		31		30		ar
24		31		26		ar
25		3		4		ar
26		52		30		1
27		17		23		ar
28		17		18		ar
29		25		48		1
30		44		18		1
31		30		29		ar
32		26		27		ar
33		10		40		1
34		10		9		ar
35		7		5		2
36		23		22		ar
37		18		19		ar
38		4		9		ar
39		4		5		1
40		9		39		1
41		27		49		1
42		27		28		ar
43		29		51		1
44		29		28		ar
45		5		8		2
46		5		6		1
47		28		50		1
48		22		46		1
49		22		20		ar
50		19		45		1
51		19		20		ar
52		20		21		1
53		6		37		1
54		6		38		1

