@<TRIPOS>MOLECULE
MXD-2011-BMC-4704-7m
 52 54 0 0 0
SMALL
MULLIKEN_CHARGES
****
Gaussian 16 #p B3LYP/6-31G* opt
@<TRIPOS>ATOM
1		C		-4.0902		-1.8165		-2.5655		C.3		1		UNL1		-0.5676
2		C		-4.5451		-1.1752		-1.2743		C.ar		1		UNL1		0.1539
3		C		-5.9048		-1.0120		-1.0181		C.ar		1		UNL1		-0.2116
4		C		-6.3415		-0.4274		0.1708		C.ar		1		UNL1		-0.1240
5		S		-8.0958		-0.2370		0.4602		S.O2		1		UNL1		1.1668
6		N		-8.4702		1.2238		-0.3277		N.3		1		UNL1		-0.8147
7		O		-8.2856		-0.0478		1.9020		O.2		1		UNL1		-0.5273
8		O		-8.7984		-1.2820		-0.2912		O.2		1		UNL1		-0.5432
9		C		-5.4290		-0.0048		1.1336		C.ar		1		UNL1		-0.1643
10		C		-4.0647		-0.1539		0.8999		C.ar		1		UNL1		-0.1542
11		C		-3.6191		-0.7336		-0.2975		C.ar		1		UNL1		0.2947
12		N		-2.2464		-0.9075		-0.5766		N.am		1		UNL1		-0.7325
13		C		-1.1530		-0.5975		0.2050		C.2		1		UNL1		0.6000
14		O		-1.1893		-0.0459		1.2886		O.2		1		UNL1		-0.4711
15		C		0.1756		-1.0732		-0.4210		C.3		1		UNL1		-0.1437
16		O		1.2927		-0.4670		0.1768		O.3		1		UNL1		-0.5124
17		C		1.5873		0.8439		-0.1133		C.ar		1		UNL1		0.3541
18		C		0.8493		1.6399		-0.9908		C.ar		1		UNL1		-0.1756
19		C		1.2344		2.9607		-1.2310		C.ar		1		UNL1		-0.1402
20		C		2.3527		3.4713		-0.5840		C.ar		1		UNL1		-0.0628
21		CL		2.8433		5.1363		-0.8740		Cl		1		UNL1		-0.0260
22		C		3.0898		2.6832		0.2994		C.ar		1		UNL1		-0.1964
23		C		2.7211		1.3618		0.5422		C.ar		1		UNL1		0.0672
24		C		3.4783		0.5019		1.5583		C.3		1		UNL1		-0.0147
25		O		4.3360		1.2744		2.3913		O.3		1		UNL1		-0.6148
26		C		4.3095		-0.6223		0.9450		C.ar		1		UNL1		0.2078
27		C		3.9244		-1.9436		1.2112		C.ar		1		UNL1		-0.1809
28		C		4.6138		-3.0454		0.7131		C.ar		1		UNL1		-0.1301
29		C		5.7363		-2.8231		-0.0796		C.ar		1		UNL1		-0.0621
30		CL		6.6332		-4.1874		-0.7270		Cl		1		UNL1		-0.0134
31		C		6.1637		-1.5308		-0.3676		C.ar		1		UNL1		-0.1302
32		C		5.4496		-0.4453		0.1448		C.ar		1		UNL1		-0.1194
33		CL		6.0658		1.1454		-0.2695		Cl		1		UNL1		0.0096
34		H		-3.4683		-1.1399		-3.1687		H		1		UNL1		0.1657
35		H		-3.5126		-2.7355		-2.3923		H		1		UNL1		0.1668
36		H		-4.9503		-2.0926		-3.1806		H		1		UNL1		0.1846
37		H		-6.6344		-1.3576		-1.7434		H		1		UNL1		0.1711
38		H		-9.3009		1.0745		-0.8980		H		1		UNL1		0.3576
39		H		-8.6348		1.9541		0.3630		H		1		UNL1		0.3538
40		H		-5.7808		0.4241		2.0654		H		1		UNL1		0.1815
41		H		-3.3407		0.1688		1.6341		H		1		UNL1		0.1999
42		H		-2.0421		-1.3487		-1.4629		H		1		UNL1		0.3409
43		H		0.1805		-0.9372		-1.5126		H		1		UNL1		0.1575
44		H		0.2864		-2.1446		-0.2196		H		1		UNL1		0.1952
45		H		-0.0393		1.2600		-1.4817		H		1		UNL1		0.1338
46		H		0.6599		3.5825		-1.9090		H		1		UNL1		0.1567
47		H		3.9611		3.0874		0.8000		H		1		UNL1		0.1740
48		H		2.7150		0.0058		2.1735		H		1		UNL1		0.1573
49		H		3.7761		1.8965		2.8839		H		1		UNL1		0.3992
50		H		3.0485		-2.1093		1.8313		H		1		UNL1		0.1490
51		H		4.2913		-4.0553		0.9408		H		1		UNL1		0.1572
52		H		7.0412		-1.3617		-0.9799		H		1		UNL1		0.1773
@<TRIPOS>BOND
1		36		1		1
2		34		1		1
3		1		35		1
4		1		2		1
5		46		19		1
6		37		3		1
7		43		15		1
8		45		18		1
9		42		12		1
10		2		3		ar
11		2		11		ar
12		19		18		ar
13		19		20		ar
14		3		4		ar
15		18		17		ar
16		52		31		1
17		38		6		1
18		21		20		1
19		30		29		1
20		20		22		ar
21		12		11		1
22		12		13		1
23		15		44		1
24		15		16		1
25		15		13		1
26		31		29		ar
27		31		32		ar
28		6		39		1
29		6		5		1
30		11		10		ar
31		8		5		2
32		33		32		1
33		17		16		1
34		17		23		ar
35		29		28		ar
36		32		26		ar
37		4		5		1
38		4		9		ar
39		13		14		2
40		22		23		ar
41		22		47		1
42		5		7		2
43		23		24		1
44		28		51		1
45		28		27		ar
46		10		9		ar
47		10		41		1
48		26		27		ar
49		26		24		1
50		9		40		1
51		27		50		1
52		24		48		1
53		24		25		1
54		25		49		1

