@<TRIPOS>MOLECULE
MXD-2011-BMC-4704-7d
 55 57 0 0 0
SMALL
MULLIKEN_CHARGES
****
Gaussian 16 #p B3LYP/6-31G* opt
@<TRIPOS>ATOM
1		C		-7.3127		4.5800		-0.8166		C.3		1		UNL1		-0.5306
2		C		-6.2822		3.5662		-0.3770		C.ar		1		UNL1		0.1820
3		C		-5.6557		2.7253		-1.3094		C.ar		1		UNL1		-0.1841
4		C		-4.7246		1.7718		-0.9086		C.ar		1		UNL1		-0.1657
5		C		-4.3815		1.6258		0.4439		C.ar		1		UNL1		0.1097
6		C		-3.3179		0.6191		0.8768		C.3		1		UNL1		0.0072
7		O		-3.1817		0.5384		2.3002		O.3		1		UNL1		-0.6107
8		C		-3.5242		-0.7832		0.3069		C.ar		1		UNL1		0.0796
9		C		-4.7990		-1.3403		0.2019		C.ar		1		UNL1		-0.2049
10		C		-4.9691		-2.6580		-0.2249		C.ar		1		UNL1		-0.0644
11		CL		-6.5922		-3.3285		-0.3454		Cl		1		UNL1		-0.0266
12		C		-3.8726		-3.4427		-0.5585		C.ar		1		UNL1		-0.1407
13		C		-2.5884		-2.9007		-0.4617		C.ar		1		UNL1		-0.1861
14		C		-2.4110		-1.5833		-0.0298		C.ar		1		UNL1		0.3408
15		O		-1.1899		-0.9814		0.0963		O.3		1		UNL1		-0.4976
16		C		-0.0393		-1.6591		-0.3458		C.3		1		UNL1		-0.1269
17		C		1.1135		-0.6419		-0.3389		C.2		1		UNL1		0.6188
18		O		0.9400		0.5203		-0.6518		O.2		1		UNL1		-0.4704
19		N		2.3256		-1.2102		-0.0069		N.am		1		UNL1		-0.7346
20		C		3.6088		-0.6255		-0.0068		C.ar		1		UNL1		0.2961
21		C		3.8090		0.7290		-0.3135		C.ar		1		UNL1		-0.1542
22		C		5.0958		1.2601		-0.3054		C.ar		1		UNL1		-0.1646
23		C		6.1764		0.4395		0.0063		C.ar		1		UNL1		-0.1244
24		S		7.8331		1.1107		0.0148		S.O2		1		UNL1		1.1659
25		N		8.4262		0.7181		-1.5320		N.3		1		UNL1		-0.8147
26		O		7.7179		2.5697		0.1102		O.2		1		UNL1		-0.5275
27		O		8.6406		0.3271		0.9554		O.2		1		UNL1		-0.5440
28		C		5.9826		-0.9045		0.3265		C.ar		1		UNL1		-0.2118
29		C		4.7050		-1.4594		0.3259		C.ar		1		UNL1		0.1535
30		C		4.5129		-2.9162		0.6811		C.3		1		UNL1		-0.5676
31		C		-4.9902		2.4711		1.3742		C.ar		1		UNL1		-0.1912
32		C		-5.9289		3.4228		0.9678		C.ar		1		UNL1		-0.1824
33		H		-8.2734		4.1000		-1.0463		H		1		UNL1		0.1641
34		H		-6.9942		5.1097		-1.7219		H		1		UNL1		0.1594
35		H		-7.4974		5.3262		-0.0371		H		1		UNL1		0.1557
36		H		-5.9019		2.8198		-2.3651		H		1		UNL1		0.1223
37		H		-4.2581		1.1338		-1.6554		H		1		UNL1		0.1298
38		H		-2.3414		0.9801		0.5430		H		1		UNL1		0.1955
39		H		-3.9831		0.1058		2.6391		H		1		UNL1		0.3845
40		H		-5.6682		-0.7345		0.4367		H		1		UNL1		0.1665
41		H		-4.0104		-4.4655		-0.8923		H		1		UNL1		0.1566
42		H		-1.7385		-3.5228		-0.7182		H		1		UNL1		0.1386
43		H		-0.1648		-2.0203		-1.3782		H		1		UNL1		0.1763
44		H		0.1749		-2.5292		0.2938		H		1		UNL1		0.1456
45		H		2.2939		-2.1775		0.2816		H		1		UNL1		0.3404
46		H		2.9566		1.3508		-0.5462		H		1		UNL1		0.2022
47		H		5.2553		2.3106		-0.5227		H		1		UNL1		0.1810
48		H		9.3568		0.3185		-1.4225		H		1		UNL1		0.3566
49		H		8.4620		1.5574		-2.1080		H		1		UNL1		0.3528
50		H		6.8365		-1.5190		0.5932		H		1		UNL1		0.1700
51		H		3.8786		-3.0466		1.5694		H		1		UNL1		0.1690
52		H		5.4737		-3.3866		0.9046		H		1		UNL1		0.1829
53		H		4.0581		-3.4871		-0.1407		H		1		UNL1		0.1639
54		H		-4.7091		2.3965		2.4196		H		1		UNL1		0.1364
55		H		-6.3879		4.0692		1.7129		H		1		UNL1		0.1215
@<TRIPOS>BOND
1		36		3		1
2		49		25		1
3		34		1		1
4		37		4		1
5		25		48		1
6		25		24		1
7		43		16		1
8		3		4		ar
9		3		2		ar
10		33		1		1
11		4		5		ar
12		41		12		1
13		1		2		1
14		1		35		1
15		42		13		1
16		18		17		2
17		12		13		ar
18		12		10		ar
19		46		21		1
20		47		22		1
21		13		14		ar
22		2		32		ar
23		16		17		1
24		16		15		1
25		16		44		1
26		11		10		1
27		17		19		1
28		21		22		ar
29		21		20		ar
30		22		23		ar
31		10		9		ar
32		53		30		1
33		14		15		1
34		14		8		ar
35		19		20		1
36		19		45		1
37		20		29		ar
38		23		24		1
39		23		28		ar
40		24		26		2
41		24		27		2
42		9		8		ar
43		9		40		1
44		8		6		1
45		29		28		ar
46		29		30		1
47		28		50		1
48		5		6		1
49		5		31		ar
50		38		6		1
51		30		52		1
52		30		51		1
53		6		7		1
54		32		31		ar
55		32		55		1
56		31		54		1
57		7		39		1

