@<TRIPOS>MOLECULE
MXD-2011-CMC-2225-9o
 38 40 0 0 0
SMALL
MULLIKEN_CHARGES
****
Gaussian 16 #p B3LYP/6-31G* opt
@<TRIPOS>ATOM
1		N		-8.5671		-1.6293		0.0801		N.1		1		UNL1		-0.4869
2		C		-7.4406		-1.3376		0.0416		C.1		1		UNL1		0.2262
3		C		-6.0559		-0.9811		-0.0059		C.ar		1		UNL1		0.1303
4		C		-5.6646		0.3671		-0.0581		C.ar		1		UNL1		-0.1536
5		C		-4.3238		0.7274		-0.1050		C.ar		1		UNL1		-0.1603
6		C		-3.3305		-0.2704		-0.1004		C.ar		1		UNL1		0.3839
7		N		-1.9608		-0.0179		-0.1460		N.pl3		1		UNL1		-0.7692
8		C		-1.2293		1.1530		-0.1976		C.ar		1		UNL1		0.6979
9		N		-1.8496		2.3379		-0.2128		N.ar		1		UNL1		-0.4819
10		C		-1.0374		3.4060		-0.2608		C.ar		1		UNL1		0.0657
11		C		0.3434		3.3192		-0.2917		C.ar		1		UNL1		-0.1861
12		C		0.8868		2.0205		-0.2746		C.ar		1		UNL1		0.3426
13		C		2.3450		1.7759		-0.3079		C.2		1		UNL1		0.1467
14		N		3.1147		2.8126		-0.3895		N.2		1		UNL1		-0.2887
15		N		4.4505		2.6571		-0.4871		N.pl3		1		UNL1		-0.5371
16		C		2.8541		0.3670		-0.2928		C.ar		1		UNL1		0.0636
17		C		3.2698		-0.2337		-1.4907		C.ar		1		UNL1		-0.1344
18		C		3.7568		-1.5379		-1.5298		C.ar		1		UNL1		-0.1351
19		C		3.8377		-2.2600		-0.3400		C.ar		1		UNL1		-0.0577
20		CL		4.4457		-3.9053		-0.3620		Cl		1		UNL1		-0.0015
21		C		3.4485		-1.6987		0.8743		C.ar		1		UNL1		-0.1425
22		C		2.9653		-0.3903		0.8824		C.ar		1		UNL1		-0.0902
23		CL		2.4977		0.3023		2.4264		Cl		1		UNL1		0.0119
24		N		0.1018		0.9396		-0.2304		N.ar		1		UNL1		-0.5849
25		C		-3.7240		-1.6239		-0.0477		C.ar		1		UNL1		-0.2059
26		C		-5.0622		-1.9763		-0.0012		C.ar		1		UNL1		-0.1408
27		H		-6.4249		1.1419		-0.0619		H		1		UNL1		0.1567
28		H		-4.0300		1.7663		-0.1446		H		1		UNL1		0.1893
29		H		-1.3574		-0.8303		-0.1346		H		1		UNL1		0.3459
30		H		-1.5340		4.3746		-0.2736		H		1		UNL1		0.1522
31		H		0.9802		4.1928		-0.3285		H		1		UNL1		0.1633
32		H		4.9429		3.4944		-0.2046		H		1		UNL1		0.3489
33		H		4.8522		1.7926		-0.1252		H		1		UNL1		0.3268
34		H		3.1990		0.3376		-2.4116		H		1		UNL1		0.1643
35		H		4.0663		-1.9887		-2.4661		H		1		UNL1		0.1670
36		H		3.5197		-2.2641		1.7957		H		1		UNL1		0.1820
37		H		-2.9647		-2.4025		-0.0433		H		1		UNL1		0.1355
38		H		-5.3477		-3.0226		0.0391		H		1		UNL1		0.1562
@<TRIPOS>BOND
1		35		18		1
2		34		17		1
3		18		17		ar
4		18		19		ar
5		17		16		ar
6		15		14		1
7		15		32		1
8		15		33		1
9		14		13		2
10		20		19		1
11		19		21		ar
12		31		11		1
13		13		16		1
14		13		12		1
15		16		22		ar
16		11		12		ar
17		11		10		ar
18		12		24		ar
19		30		10		1
20		10		9		ar
21		24		8		ar
22		9		8		ar
23		8		7		1
24		7		29		1
25		7		6		1
26		28		5		1
27		5		6		ar
28		5		4		ar
29		6		25		ar
30		27		4		1
31		4		3		ar
32		25		37		1
33		25		26		ar
34		3		26		ar
35		3		2		1
36		26		38		1
37		2		1		3
38		21		22		ar
39		21		36		1
40		22		23		1

