@<TRIPOS>MOLECULE
MXD-2011-CMC-2225-9e
 38 40 0 0 0
SMALL
MULLIKEN_CHARGES
****
Gaussian 16 #p B3LYP/6-31G* opt
@<TRIPOS>ATOM
1		N		-7.2333		-2.6112		0.2740		N.1		1		UNL1		-0.4896
2		C		-6.3644		-1.8392		0.2025		C.1		1		UNL1		0.2245
3		C		-5.2968		-0.8912		0.1149		C.ar		1		UNL1		0.1309
4		C		-5.5656		0.4892		0.1050		C.ar		1		UNL1		-0.1423
5		C		-4.5256		1.3993		0.0206		C.ar		1		UNL1		-0.2050
6		C		-3.1850		0.9668		-0.0566		C.ar		1		UNL1		0.3798
7		N		-2.2113		1.9600		-0.1426		N.pl3		1		UNL1		-0.7672
8		C		-0.8325		1.9011		-0.2124		C.ar		1		UNL1		0.6907
9		N		-0.2529		3.1202		-0.3060		N.ar		1		UNL1		-0.4888
10		C		1.0753		3.1034		-0.3809		C.ar		1		UNL1		0.0681
11		C		1.8316		1.9316		-0.3640		C.ar		1		UNL1		-0.2127
12		C		1.1251		0.7267		-0.2558		C.ar		1		UNL1		0.3463
13		C		1.8190		-0.5837		-0.2292		C.2		1		UNL1		0.1969
14		N		1.0789		-1.6448		-0.2923		N.2		1		UNL1		-0.2729
15		N		1.6480		-2.8661		-0.3200		N.pl3		1		UNL1		-0.5390
16		C		3.3134		-0.6317		-0.1540		C.ar		1		UNL1		-0.0805
17		C		4.0899		-1.1248		-1.2164		C.ar		1		UNL1		-0.1565
18		C		5.4812		-1.1779		-1.1303		C.ar		1		UNL1		-0.1334
19		C		6.1255		-0.7386		0.0287		C.ar		1		UNL1		-0.1260
20		C		5.3809		-0.2493		1.1022		C.ar		1		UNL1		-0.1976
21		C		3.9962		-0.2088		0.9916		C.ar		1		UNL1		0.3549
22		F		3.2791		0.2628		2.0328		F		1		UNL1		-0.2837
23		N		-0.2175		0.7213		-0.1780		N.ar		1		UNL1		-0.5473
24		C		-2.9123		-0.4155		-0.0475		C.ar		1		UNL1		-0.1691
25		C		-3.9616		-1.3217		0.0373		C.ar		1		UNL1		-0.1579
26		H		-6.5912		0.8392		0.1641		H		1		UNL1		0.1543
27		H		-4.7455		2.4644		0.0144		H		1		UNL1		0.1340
28		H		-2.5452		2.9151		-0.1633		H		1		UNL1		0.3447
29		H		1.5621		4.0743		-0.4607		H		1		UNL1		0.1506
30		H		2.9109		1.9628		-0.4407		H		1		UNL1		0.1484
31		H		0.9945		-3.5837		-0.0347		H		1		UNL1		0.3486
32		H		2.5831		-2.9658		0.0759		H		1		UNL1		0.3224
33		H		3.5853		-1.4631		-2.1169		H		1		UNL1		0.1620
34		H		6.0603		-1.5570		-1.9669		H		1		UNL1		0.1442
35		H		7.2086		-0.7768		0.1010		H		1		UNL1		0.1479
36		H		5.8498		0.0967		2.0175		H		1		UNL1		0.1557
37		H		-1.8881		-0.7574		-0.1066		H		1		UNL1		0.2131
38		H		-3.7460		-2.3857		0.0428		H		1		UNL1		0.1515
@<TRIPOS>BOND
1		33		17		1
2		34		18		1
3		17		18		ar
4		17		16		ar
5		18		19		ar
6		29		10		1
7		30		11		1
8		10		11		ar
9		10		9		ar
10		11		12		ar
11		15		14		1
12		15		31		1
13		15		32		1
14		9		8		ar
15		14		13		2
16		12		13		1
17		12		23		ar
18		13		16		1
19		8		23		ar
20		8		7		1
21		28		7		1
22		16		21		ar
23		7		6		1
24		37		24		1
25		6		24		ar
26		6		5		ar
27		24		25		ar
28		27		5		1
29		5		4		ar
30		19		35		1
31		19		20		ar
32		25		38		1
33		25		3		ar
34		4		3		ar
35		4		26		1
36		3		2		1
37		2		1		3
38		21		20		ar
39		21		22		1
40		20		36		1

