@<TRIPOS>MOLECULE
MXD-2012-EJMC-504-3-13b
 55 57 0 0 0
SMALL
MULLIKEN_CHARGES
****
Gaussian 16 #p B3LYP/6-31G* opt
@<TRIPOS>ATOM
1		C		4.0361		-3.3619		-0.7978		C.3		1		UNL1		-0.5684
2		C		4.2741		-1.9116		-0.4433		C.ar		1		UNL1		0.1534
3		C		5.5731		-1.4102		-0.3948		C.ar		1		UNL1		-0.2119
4		C		5.8103		-0.0734		-0.0748		C.ar		1		UNL1		-0.1230
5		S		7.4933		0.5298		-0.0228		S.O2		1		UNL1		1.1677
6		N		8.0050		0.1413		1.5525		N.3		1		UNL1		-0.8150
7		O		7.4406		1.9903		-0.1416		O.2		1		UNL1		-0.5277
8		O		8.3017		-0.3016		-0.9202		O.2		1		UNL1		-0.5421
9		C		4.7536		0.7939		0.1882		C.ar		1		UNL1		-0.1641
10		C		3.4463		0.3169		0.1469		C.ar		1		UNL1		-0.1528
11		C		3.2022		-1.0298		-0.1609		C.ar		1		UNL1		0.2954
12		N		1.8951		-1.5607		-0.2137		N.am		1		UNL1		-0.7335
13		C		0.6950		-0.9454		0.0606		C.2		1		UNL1		0.6147
14		O		0.5555		0.2280		0.3556		O.2		1		UNL1		-0.4731
15		C		-0.4904		-1.9237		0.0042		C.3		1		UNL1		-0.1243
16		O		-1.6539		-1.1594		-0.1710		O.3		1		UNL1		-0.5339
17		C		-2.8815		-1.7712		-0.0614		C.ar		1		UNL1		0.3369
18		C		-3.0861		-3.1443		-0.0052		C.ar		1		UNL1		-0.1936
19		C		-4.3848		-3.6572		0.0891		C.ar		1		UNL1		-0.1406
20		C		-5.4536		-2.7712		0.1194		C.ar		1		UNL1		-0.0788
21		CL		-7.0919		-3.4045		0.2323		Cl		1		UNL1		-0.0247
22		C		-5.2733		-1.3879		0.0642		C.ar		1		UNL1		-0.1721
23		C		-3.9761		-0.8731		-0.0220		C.ar		1		UNL1		0.3124
24		N		-3.6611		0.4914		-0.0598		N.am		1		UNL1		-0.7383
25		C		-4.5251		1.5675		-0.0956		C.2		1		UNL1		0.5420
26		O		-5.7442		1.4454		-0.1443		O.2		1		UNL1		-0.5035
27		C		-3.8646		2.9208		-0.1414		C.ar		1		UNL1		0.0011
28		C		-4.4779		3.8452		-1.0017		C.ar		1		UNL1		-0.1499
29		C		-3.9731		5.1316		-1.1535		C.ar		1		UNL1		-0.1394
30		C		-2.8531		5.5158		-0.4149		C.ar		1		UNL1		-0.1143
31		C		-2.2644		4.6153		0.4700		C.ar		1		UNL1		-0.1876
32		C		-2.7452		3.3072		0.6300		C.ar		1		UNL1		0.1458
33		C		-2.0674		2.4120		1.6493		C.3		1		UNL1		-0.5751
34		H		3.4331		-3.4729		-1.7101		H		1		UNL1		0.1688
35		H		3.5269		-3.9084		0.0086		H		1		UNL1		0.1653
36		H		4.9848		-3.8728		-0.9801		H		1		UNL1		0.1851
37		H		6.4104		-2.0617		-0.6236		H		1		UNL1		0.1718
38		H		8.0803		0.9921		2.1075		H		1		UNL1		0.3544
39		H		8.9065		-0.3286		1.4896		H		1		UNL1		0.3578
40		H		4.9482		1.8382		0.4063		H		1		UNL1		0.1816
41		H		2.6131		0.9762		0.3425		H		1		UNL1		0.1984
42		H		1.8388		-2.5333		-0.4826		H		1		UNL1		0.3426
43		H		-0.5299		-2.4896		0.9483		H		1		UNL1		0.1803
44		H		-0.3624		-2.6462		-0.8168		H		1		UNL1		0.1556
45		H		-2.2470		-3.8304		-0.0403		H		1		UNL1		0.1356
46		H		-4.5519		-4.7273		0.1328		H		1		UNL1		0.1525
47		H		-6.1124		-0.7084		0.0863		H		1		UNL1		0.2130
48		H		-2.6697		0.6864		-0.1107		H		1		UNL1		0.3735
49		H		-5.3616		3.5286		-1.5463		H		1		UNL1		0.1579
50		H		-4.4525		5.8294		-1.8342		H		1		UNL1		0.1346
51		H		-2.4475		6.5194		-0.5139		H		1		UNL1		0.1334
52		H		-1.4131		4.9329		1.0675		H		1		UNL1		0.1271
53		H		-2.7811		1.7707		2.1750		H		1		UNL1		0.1687
54		H		-1.3035		1.7615		1.2028		H		1		UNL1		0.2018
55		H		-1.5563		3.0252		2.3984		H		1		UNL1		0.1583
@<TRIPOS>BOND
1		50		29		1
2		34		1		1
3		49		28		1
4		29		28		ar
5		29		30		ar
6		28		27		ar
7		36		1		1
8		8		5		2
9		44		15		1
10		1		2		1
11		1		35		1
12		37		3		1
13		51		30		1
14		42		12		1
15		2		3		ar
16		2		11		ar
17		30		31		ar
18		3		4		ar
19		12		11		1
20		12		13		1
21		16		17		1
22		16		15		1
23		11		10		ar
24		26		25		2
25		7		5		2
26		27		25		1
27		27		32		ar
28		48		24		1
29		25		24		1
30		4		5		1
31		4		9		ar
32		17		23		ar
33		17		18		ar
34		24		23		1
35		45		18		1
36		5		6		1
37		23		22		ar
38		18		19		ar
39		15		13		1
40		15		43		1
41		13		14		2
42		22		47		1
43		22		20		ar
44		19		20		ar
45		19		46		1
46		20		21		1
47		10		9		ar
48		10		41		1
49		9		40		1
50		31		32		ar
51		31		52		1
52		32		33		1
53		54		33		1
54		39		6		1
55		6		38		1
56		33		53		1
57		33		55		1

