@<TRIPOS>MOLECULE
MXD-2011-BMC-4601-10n
 62 65 0 0 0
SMALL
MULLIKEN_CHARGES
****
Gaussian 16 #p B3LYP/6-31G* opt
@<TRIPOS>ATOM
1		C		-4.3074		-5.1782		-2.8281		C.3		1		UNL1		-0.5315
2		C		-4.2160		-4.1121		-1.7607		C.ar		1		UNL1		0.1803
3		C		-5.2955		-3.8801		-0.8927		C.ar		1		UNL1		-0.2180
4		C		-5.2527		-2.9047		0.1089		C.ar		1		UNL1		0.1778
5		C		-6.4426		-2.6645		1.0096		C.3		1		UNL1		-0.5298
6		C		-4.0868		-2.1420		0.2413		C.ar		1		UNL1		-0.2322
7		C		-2.9945		-2.3509		-0.6102		C.ar		1		UNL1		0.0927
8		C		-1.7311		-1.5733		-0.4746		C.2		1		UNL1		0.3329
9		O		-0.7348		-1.8545		-1.1310		O.2		1		UNL1		-0.4638
10		C		-1.6631		-0.4149		0.4999		C.ar		1		UNL1		-0.0860
11		C		-0.8850		-0.5604		1.6403		C.ar		1		UNL1		0.3479
12		O		-0.3464		-1.8118		1.8341		O.3		1		UNL1		-0.5398
13		C		0.5650		-2.0242		2.9037		C.3		1		UNL1		-0.1459
14		C		1.9629		-1.4283		2.6731		C.2		1		UNL1		0.5876
15		O		2.6599		-1.1358		3.6341		O.2		1		UNL1		-0.4976
16		N		2.3122		-1.3344		1.3510		N.am		1		UNL1		-0.7269
17		C		3.5183		-0.8630		0.7908		C.ar		1		UNL1		0.2913
18		C		4.5419		-0.3255		1.5865		C.ar		1		UNL1		-0.1565
19		C		5.7129		0.1408		0.9956		C.ar		1		UNL1		-0.1668
20		C		5.8562		0.0712		-0.3872		C.ar		1		UNL1		-0.1254
21		S		7.3520		0.6717		-1.1569		S.O2		1		UNL1		1.1631
22		N		6.9180		2.2261		-1.7026		N.3		1		UNL1		-0.8143
23		O		8.3663		0.8126		-0.1059		O.2		1		UNL1		-0.5301
24		O		7.5971		-0.1112		-2.3729		O.2		1		UNL1		-0.5457
25		C		4.8494		-0.4776		-1.1825		C.ar		1		UNL1		-0.2110
26		C		3.6693		-0.9548		-0.6156		C.ar		1		UNL1		0.1496
27		C		2.6043		-1.5725		-1.4903		C.3		1		UNL1		-0.5679
28		C		-0.6934		0.5195		2.5364		C.ar		1		UNL1		-0.1880
29		C		-1.2915		1.7319		2.2799		C.ar		1		UNL1		-0.1982
30		C		-2.0973		1.9291		1.1315		C.ar		1		UNL1		0.1403
31		C		-2.7067		3.1839		0.8617		C.ar		1		UNL1		-0.2215
32		C		-3.4641		3.3483		-0.2705		C.ar		1		UNL1		0.0796
33		BR		-4.2874		5.0343		-0.6354		Br		1		UNL1		-0.1256
34		C		-3.6496		2.2886		-1.1885		C.ar		1		UNL1		-0.1513
35		C		-3.0697		1.0655		-0.9457		C.ar		1		UNL1		-0.1991
36		C		-2.2829		0.8376		0.2199		C.ar		1		UNL1		0.1191
37		C		-3.0673		-3.3393		-1.6056		C.ar		1		UNL1		-0.2229
38		H		-4.5092		-6.1638		-2.3912		H		1		UNL1		0.1663
39		H		-3.3775		-5.2493		-3.3999		H		1		UNL1		0.1638
40		H		-5.1199		-4.9672		-3.5344		H		1		UNL1		0.1661
41		H		-6.1962		-4.4828		-1.0012		H		1		UNL1		0.1256
42		H		-6.1337		-2.2747		1.9850		H		1		UNL1		0.1622
43		H		-7.1312		-1.9312		0.5694		H		1		UNL1		0.1718
44		H		-7.0116		-3.5850		1.1767		H		1		UNL1		0.1611
45		H		-4.0269		-1.3852		1.0180		H		1		UNL1		0.1423
46		H		0.1877		-1.6482		3.8589		H		1		UNL1		0.1833
47		H		0.6576		-3.1120		2.9832		H		1		UNL1		0.1978
48		H		1.5902		-1.6173		0.6971		H		1		UNL1		0.3747
49		H		4.4140		-0.2874		2.6587		H		1		UNL1		0.1944
50		H		6.5141		0.5426		1.6062		H		1		UNL1		0.1768
51		H		7.2627		2.3323		-2.6553		H		1		UNL1		0.3551
52		H		7.3299		2.9303		-1.0927		H		1		UNL1		0.3502
53		H		4.9948		-0.5507		-2.2555		H		1		UNL1		0.1672
54		H		2.9075		-1.5382		-2.5401		H		1		UNL1		0.1685
55		H		1.6345		-1.0671		-1.4121		H		1		UNL1		0.1975
56		H		2.4309		-2.6269		-1.2362		H		1		UNL1		0.1689
57		H		-0.0672		0.4084		3.4139		H		1		UNL1		0.1665
58		H		-1.1403		2.5614		2.9654		H		1		UNL1		0.1490
59		H		-2.5633		4.0062		1.5553		H		1		UNL1		0.1570
60		H		-4.2462		2.4500		-2.0796		H		1		UNL1		0.1583
61		H		-3.2155		0.2615		-1.6596		H		1		UNL1		0.1546
62		H		-2.2043		-3.4897		-2.2468		H		1		UNL1		0.1546
@<TRIPOS>BOND
1		40		1		1
2		39		1		1
3		1		38		1
4		1		2		1
5		51		22		1
6		54		27		1
7		24		21		2
8		53		25		1
9		62		37		1
10		60		34		1
11		2		37		ar
12		2		3		ar
13		22		21		1
14		22		52		1
15		61		35		1
16		37		7		ar
17		27		55		1
18		27		56		1
19		27		26		1
20		34		35		ar
21		34		32		ar
22		25		26		ar
23		25		20		ar
24		21		20		1
25		21		23		2
26		9		8		2
27		41		3		1
28		35		36		ar
29		3		4		ar
30		33		32		1
31		26		17		ar
32		7		8		1
33		7		6		ar
34		8		10		1
35		20		19		ar
36		32		31		ar
37		4		6		ar
38		4		5		1
39		36		10		ar
40		36		30		ar
41		6		45		1
42		10		11		ar
43		43		5		1
44		48		16		1
45		17		16		1
46		17		18		ar
47		31		30		ar
48		31		59		1
49		19		18		ar
50		19		50		1
51		5		44		1
52		5		42		1
53		30		29		ar
54		16		14		1
55		18		49		1
56		11		12		1
57		11		28		ar
58		12		13		1
59		29		28		ar
60		29		58		1
61		28		57		1
62		14		13		1
63		14		15		2
64		13		47		1
65		13		46		1

