@<TRIPOS>MOLECULE
MXD-2011-BMC-4704-7c
 55 57 0 0 0
SMALL
MULLIKEN_CHARGES
****
Gaussian 16 #p B3LYP/6-31G* opt
@<TRIPOS>ATOM
1		C		-8.8995		-0.9171		0.6929		C.3		1		UNL1		-0.5278
2		C		-7.4868		-1.3254		0.3422		C.ar		1		UNL1		0.1771
3		C		-7.2371		-2.3419		-0.5849		C.ar		1		UNL1		-0.1791
4		C		-5.9276		-2.7288		-0.8783		C.ar		1		UNL1		-0.1302
5		C		-4.8531		-2.1022		-0.2527		C.ar		1		UNL1		-0.1781
6		C		-5.0825		-1.0754		0.6730		C.ar		1		UNL1		0.1378
7		C		-3.8989		-0.3754		1.3320		C.3		1		UNL1		0.0097
8		O		-4.3770		0.3160		2.4843		O.3		1		UNL1		-0.6336
9		C		-3.2027		0.5945		0.3725		C.ar		1		UNL1		0.0720
10		C		-3.7196		1.8788		0.1969		C.ar		1		UNL1		-0.1896
11		C		-3.0921		2.7842		-0.6553		C.ar		1		UNL1		-0.0606
12		CL		-3.7656		4.3979		-0.8583		Cl		1		UNL1		-0.0277
13		C		-1.9337		2.4314		-1.3390		C.ar		1		UNL1		-0.1411
14		C		-1.4050		1.1509		-1.1709		C.ar		1		UNL1		-0.1724
15		C		-2.0379		0.2332		-0.3284		C.ar		1		UNL1		0.3471
16		O		-1.6014		-1.0598		-0.1353		O.3		1		UNL1		-0.5149
17		C		-0.3916		-1.4755		-0.7136		C.3		1		UNL1		-0.1434
18		C		0.8388		-0.8594		-0.0130		C.2		1		UNL1		0.6011
19		O		0.7601		-0.3357		1.0818		O.2		1		UNL1		-0.4706
20		N		1.9958		-1.0142		-0.7486		N.am		1		UNL1		-0.7328
21		C		3.3228		-0.6825		-0.4015		C.ar		1		UNL1		0.2951
22		C		3.6337		-0.0284		0.8001		C.ar		1		UNL1		-0.1540
23		C		4.9576		0.2800		1.1006		C.ar		1		UNL1		-0.1643
24		C		5.9648		-0.0667		0.2041		C.ar		1		UNL1		-0.1242
25		S		7.6685		0.3220		0.5823		S.O2		1		UNL1		1.1665
26		N		8.2603		-1.1201		1.2652		N.3		1		UNL1		-0.8148
27		O		7.6638		1.3583		1.6200		O.2		1		UNL1		-0.5273
28		O		8.3920		0.4848		-0.6827		O.2		1		UNL1		-0.5435
29		C		5.6606		-0.7051		-0.9984		C.ar		1		UNL1		-0.2117
30		C		4.3437		-1.0238		-1.3225		C.ar		1		UNL1		0.1539
31		C		4.0320		-1.7105		-2.6327		C.3		1		UNL1		-0.5675
32		C		-6.3955		-0.6989		0.9619		C.ar		1		UNL1		-0.2272
33		H		-9.6218		-1.3132		-0.0283		H		1		UNL1		0.1517
34		H		-9.0082		0.1734		0.7154		H		1		UNL1		0.1601
35		H		-9.1867		-1.2887		1.6854		H		1		UNL1		0.1648
36		H		-8.0713		-2.8369		-1.0773		H		1		UNL1		0.1177
37		H		-5.7467		-3.5246		-1.5967		H		1		UNL1		0.1215
38		H		-3.8343		-2.4033		-0.4808		H		1		UNL1		0.1271
39		H		-3.1689		-1.1388		1.6284		H		1		UNL1		0.1575
40		H		-3.6174		0.7720		2.8794		H		1		UNL1		0.3994
41		H		-4.6109		2.1654		0.7438		H		1		UNL1		0.1699
42		H		-1.4412		3.1449		-1.9908		H		1		UNL1		0.1564
43		H		-0.4906		0.8952		-1.6941		H		1		UNL1		0.1327
44		H		-0.3618		-2.5612		-0.5684		H		1		UNL1		0.1952
45		H		-0.3732		-1.2841		-1.7970		H		1		UNL1		0.1563
46		H		1.8875		-1.4604		-1.6491		H		1		UNL1		0.3406
47		H		2.8375		0.2355		1.4812		H		1		UNL1		0.2001
48		H		5.2028		0.8024		2.0188		H		1		UNL1		0.1815
49		H		8.3773		-1.0011		2.2700		H		1		UNL1		0.3535
50		H		9.1517		-1.3388		0.8232		H		1		UNL1		0.3573
51		H		6.4586		-0.9418		-1.6948		H		1		UNL1		0.1707
52		H		3.5523		-2.6885		-2.4851		H		1		UNL1		0.1652
53		H		4.9486		-1.8869		-3.2011		H		1		UNL1		0.1841
54		H		3.3710		-1.1073		-3.2710		H		1		UNL1		0.1668
55		H		-6.5688		0.0850		1.6922		H		1		UNL1		0.1461
@<TRIPOS>BOND
1		54		31		1
2		53		31		1
3		31		52		1
4		31		30		1
5		42		13		1
6		45		17		1
7		51		29		1
8		43		14		1
9		46		20		1
10		37		4		1
11		13		14		ar
12		13		11		ar
13		30		29		ar
14		30		21		ar
15		14		15		ar
16		36		3		1
17		29		24		ar
18		4		3		ar
19		4		5		ar
20		12		11		1
21		20		21		1
22		20		18		1
23		17		44		1
24		17		16		1
25		17		18		1
26		28		25		2
27		11		10		ar
28		3		2		ar
29		38		5		1
30		21		22		ar
31		15		16		1
32		15		9		ar
33		5		6		ar
34		33		1		1
35		18		19		2
36		10		9		ar
37		10		41		1
38		24		25		1
39		24		23		ar
40		2		1		1
41		2		32		ar
42		9		7		1
43		25		26		1
44		25		27		2
45		6		32		ar
46		6		7		1
47		1		34		1
48		1		35		1
49		22		23		ar
50		22		47		1
51		50		26		1
52		32		55		1
53		23		48		1
54		26		49		1
55		7		39		1
56		7		8		1
57		8		40		1

