@<TRIPOS>MOLECULE
MXD-2011-BMC-4601-10s
 60 63 0 0 0
SMALL
MULLIKEN_CHARGES
****
Gaussian 16 #p B3LYP/6-31G* opt
@<TRIPOS>ATOM
1		C		-2.4255		-6.2403		0.2976		C.3		1		UNL1		-0.5314
2		C		-2.2248		-4.7710		0.5876		C.ar		1		UNL1		0.1735
3		C		-1.3728		-4.3558		1.6250		C.ar		1		UNL1		-0.1636
4		C		-1.1732		-3.0028		1.8965		C.ar		1		UNL1		-0.1388
5		C		-1.8151		-2.0319		1.1272		C.ar		1		UNL1		-0.1857
6		C		-2.6710		-2.4234		0.0899		C.ar		1		UNL1		0.1046
7		C		-3.4250		-1.4344		-0.7340		C.2		1		UNL1		0.3271
8		O		-4.3402		-1.7782		-1.4682		O.2		1		UNL1		-0.4545
9		C		-3.0749		0.0387		-0.6348		C.ar		1		UNL1		-0.0548
10		C		-1.9050		0.5077		-1.2105		C.ar		1		UNL1		0.3309
11		O		-1.0594		-0.4384		-1.7528		O.3		1		UNL1		-0.5487
12		C		-0.3211		-0.0999		-2.9303		C.3		1		UNL1		-0.1435
13		C		1.1331		0.3196		-2.6790		C.2		1		UNL1		0.5802
14		O		1.7819		0.8012		-3.5951		O.2		1		UNL1		-0.4900
15		N		1.5778		0.0616		-1.4084		N.am		1		UNL1		-0.7317
16		C		2.8578		0.2720		-0.8586		C.ar		1		UNL1		0.2961
17		C		3.9187		0.7789		-1.6247		C.ar		1		UNL1		-0.1561
18		C		5.1686		0.9692		-1.0422		C.ar		1		UNL1		-0.1650
19		C		5.3567		0.6481		0.2995		C.ar		1		UNL1		-0.1246
20		S		6.9586		0.8848		1.0565		S.O2		1		UNL1		1.1655
21		N		7.6771		-0.6550		0.9518		N.3		1		UNL1		-0.8146
22		O		7.7162		1.8088		0.2059		O.2		1		UNL1		-0.5280
23		O		6.7579		1.1277		2.4888		O.2		1		UNL1		-0.5441
24		C		4.3030		0.1555		1.0700		C.ar		1		UNL1		-0.2121
25		C		3.0420		-0.0396		0.5109		C.ar		1		UNL1		0.1534
26		C		1.9060		-0.5562		1.3624		C.3		1		UNL1		-0.5727
27		C		-1.5841		1.8882		-1.2156		C.ar		1		UNL1		-0.1801
28		C		-2.4474		2.7891		-0.6403		C.ar		1		UNL1		-0.1956
29		C		-3.6615		2.3610		-0.0427		C.ar		1		UNL1		0.1392
30		C		-4.5534		3.2856		0.5521		C.ar		1		UNL1		-0.2184
31		C		-5.7391		2.8563		1.1230		C.ar		1		UNL1		0.1374
32		C		-6.6341		3.7997		1.7258		C.1		1		UNL1		0.2356
33		N		-7.3641		4.5600		2.2185		N.1		1		UNL1		-0.4758
34		C		-6.0724		1.4712		1.1090		C.ar		1		UNL1		-0.1427
35		C		-5.2215		0.5573		0.5393		C.ar		1		UNL1		-0.1944
36		C		-3.9892		0.9643		-0.0487		C.ar		1		UNL1		0.1090
37		C		-2.8724		-3.7900		-0.1630		C.ar		1		UNL1		-0.2171
38		H		-2.6887		-6.7945		1.2062		H		1		UNL1		0.1664
39		H		-3.2224		-6.3964		-0.4353		H		1		UNL1		0.1662
40		H		-1.5107		-6.6949		-0.1035		H		1		UNL1		0.1691
41		H		-0.8658		-5.1045		2.2299		H		1		UNL1		0.1357
42		H		-0.5236		-2.7053		2.7152		H		1		UNL1		0.1403
43		H		-1.6707		-0.9780		1.3454		H		1		UNL1		0.1414
44		H		-0.3050		-1.0033		-3.5490		H		1		UNL1		0.2052
45		H		-0.8136		0.6923		-3.5010		H		1		UNL1		0.1930
46		H		0.8813		-0.3588		-0.8053		H		1		UNL1		0.3661
47		H		3.7508		1.0239		-2.6639		H		1		UNL1		0.1990
48		H		5.9876		1.3784		-1.6237		H		1		UNL1		0.1800
49		H		8.3990		-0.6479		0.2333		H		1		UNL1		0.3528
50		H		8.0781		-0.8799		1.8609		H		1		UNL1		0.3567
51		H		4.4648		-0.0603		2.1212		H		1		UNL1		0.1694
52		H		2.2418		-0.7191		2.3899		H		1		UNL1		0.1768
53		H		1.5079		-1.5120		0.9953		H		1		UNL1		0.1751
54		H		1.0691		0.1545		1.4027		H		1		UNL1		0.1689
55		H		-0.6560		2.2306		-1.6609		H		1		UNL1		0.1622
56		H		-2.2023		3.8476		-0.6355		H		1		UNL1		0.1553
57		H		-4.2994		4.3414		0.5564		H		1		UNL1		0.1633
58		H		-7.0091		1.1490		1.5517		H		1		UNL1		0.1629
59		H		-5.4984		-0.4906		0.5208		H		1		UNL1		0.1661
60		H		-3.5518		-4.0661		-0.9640		H		1		UNL1		0.1593
@<TRIPOS>BOND
1		14		13		2
2		44		12		1
3		45		12		1
4		12		13		1
5		12		11		1
6		13		15		1
7		47		17		1
8		11		10		1
9		55		27		1
10		17		18		ar
11		17		16		ar
12		48		18		1
13		8		7		2
14		15		16		1
15		15		46		1
16		27		10		ar
17		27		28		ar
18		10		9		ar
19		18		19		ar
20		60		37		1
21		16		25		ar
22		7		9		1
23		7		6		1
24		28		56		1
25		28		29		ar
26		9		36		ar
27		39		1		1
28		37		6		ar
29		37		2		ar
30		40		1		1
31		36		29		ar
32		36		35		ar
33		29		30		ar
34		6		5		ar
35		22		20		2
36		49		21		1
37		1		2		1
38		1		38		1
39		19		20		1
40		19		24		ar
41		25		24		ar
42		25		26		1
43		59		35		1
44		35		34		ar
45		30		57		1
46		30		31		ar
47		2		3		ar
48		21		20		1
49		21		50		1
50		53		26		1
51		20		23		2
52		24		51		1
53		34		31		ar
54		34		58		1
55		31		32		1
56		5		43		1
57		5		4		ar
58		26		54		1
59		26		52		1
60		3		4		ar
61		3		41		1
62		32		33		3
63		4		42		1

