@<TRIPOS>MOLECULE
MXD-2011-BMC-4704-7s
 58 61 0 0 0
SMALL
MULLIKEN_CHARGES
****
Gaussian 16 #p B3LYP/6-31G* opt
@<TRIPOS>ATOM
1		C		2.0611		-1.8470		-0.9902		C.3		1		UNL1		-0.5762
2		C		3.2021		-0.8874		-0.7480		C.ar		1		UNL1		0.1548
3		C		4.4357		-1.3686		-0.3098		C.ar		1		UNL1		-0.2291
4		C		5.5153		-0.5066		-0.1115		C.ar		1		UNL1		-0.1422
5		S		7.0736		-1.1639		0.4890		S.O2		1		UNL1		1.1610
6		N		7.0450		-1.0509		2.1739		N.3		1		UNL1		-0.7852
7		O		7.0879		-2.5971		0.1975		O.2		1		UNL1		-0.5296
8		O		8.1320		-0.2519		0.0583		O.2		1		UNL1		-0.5269
9		C		5.3859		0.8578		-0.3660		C.ar		1		UNL1		-0.1733
10		C		4.1639		1.3641		-0.7973		C.ar		1		UNL1		-0.1553
11		C		3.0685		0.5035		-0.9797		C.ar		1		UNL1		0.2922
12		N		1.8115		0.9821		-1.4040		N.am		1		UNL1		-0.7284
13		C		1.4635		2.2578		-1.7692		C.2		1		UNL1		0.5884
14		O		2.2055		3.2277		-1.8215		O.2		1		UNL1		-0.4962
15		C		-0.0034		2.4005		-2.2049		C.3		1		UNL1		-0.1464
16		O		-0.8779		1.4376		-1.6353		O.3		1		UNL1		-0.5381
17		C		-1.2628		1.5820		-0.3202		C.ar		1		UNL1		0.3372
18		C		-0.8654		2.6418		0.4978		C.ar		1		UNL1		-0.1854
19		C		-1.3165		2.7085		1.8183		C.ar		1		UNL1		-0.1405
20		C		-2.1557		1.7143		2.3063		C.ar		1		UNL1		-0.0666
21		CL		-2.7260		1.7919		3.9681		Cl		1		UNL1		-0.0207
22		C		-2.5465		0.6484		1.4958		C.ar		1		UNL1		-0.1859
23		C		-2.1070		0.5677		0.1760		C.ar		1		UNL1		0.1035
24		C		-2.4557		-0.6055		-0.7287		C.3		1		UNL1		0.0188
25		O		-1.2688		-1.4191		-0.7851		O.3		1		UNL1		-0.6320
26		C		-3.6773		-1.4074		-0.2971		C.ar		1		UNL1		0.0221
27		C		-3.5111		-2.6080		0.3641		C.ar		1		UNL1		-0.2027
28		C		-4.6200		-3.3982		0.7500		C.ar		1		UNL1		-0.1326
29		C		-5.8971		-2.9786		0.4683		C.ar		1		UNL1		-0.1851
30		C		-6.1220		-1.7454		-0.2014		C.ar		1		UNL1		0.1351
31		C		-7.4373		-1.2958		-0.4935		C.ar		1		UNL1		-0.1942
32		C		-7.6521		-0.0966		-1.1330		C.ar		1		UNL1		-0.1302
33		C		-6.5516		0.7091		-1.5060		C.ar		1		UNL1		-0.1354
34		C		-5.2626		0.3020		-1.2391		C.ar		1		UNL1		-0.1960
35		C		-5.0010		-0.9357		-0.5872		C.ar		1		UNL1		0.0971
36		H		2.3722		-2.8705		-0.7640		H		1		UNL1		0.1700
37		H		1.1779		-1.6264		-0.3783		H		1		UNL1		0.2008
38		H		1.7373		-1.8292		-2.0400		H		1		UNL1		0.1618
39		H		4.5690		-2.4335		-0.1464		H		1		UNL1		0.1711
40		H		7.0041		-0.0861		2.4935		H		1		UNL1		0.3470
41		H		6.3118		-1.6233		2.5856		H		1		UNL1		0.3458
42		H		6.2394		1.5177		-0.2490		H		1		UNL1		0.1765
43		H		4.0485		2.4175		-1.0083		H		1		UNL1		0.1975
44		H		1.0458		0.3164		-1.4040		H		1		UNL1		0.3730
45		H		-0.0610		2.2377		-3.2860		H		1		UNL1		0.1952
46		H		-0.3216		3.4270		-2.0004		H		1		UNL1		0.1853
47		H		-0.1963		3.4137		0.1358		H		1		UNL1		0.1666
48		H		-1.0096		3.5299		2.4567		H		1		UNL1		0.1627
49		H		-3.1965		-0.1227		1.8927		H		1		UNL1		0.1718
50		H		-2.6394		-0.2037		-1.7331		H		1		UNL1		0.1462
51		H		-1.4351		-2.1171		-1.4406		H		1		UNL1		0.3959
52		H		-2.5045		-2.9485		0.5845		H		1		UNL1		0.1437
53		H		-4.4514		-4.3386		1.2675		H		1		UNL1		0.1360
54		H		-6.7553		-3.5811		0.7561		H		1		UNL1		0.1349
55		H		-8.2767		-1.9202		-0.1969		H		1		UNL1		0.1347
56		H		-8.6636		0.2359		-1.3489		H		1		UNL1		0.1354
57		H		-6.7249		1.6596		-2.0033		H		1		UNL1		0.1346
58		H		-4.4375		0.9485		-1.5190		H		1		UNL1		0.1373
@<TRIPOS>BOND
1		45		15		1
2		15		46		1
3		15		13		1
4		15		16		1
5		38		1		1
6		57		33		1
7		14		13		2
8		13		12		1
9		50		24		1
10		16		17		1
11		58		34		1
12		33		34		ar
13		33		32		ar
14		51		25		1
15		12		44		1
16		12		11		1
17		56		32		1
18		34		35		ar
19		32		31		ar
20		43		10		1
21		1		36		1
22		1		2		1
23		1		37		1
24		11		10		ar
25		11		2		ar
26		10		9		ar
27		25		24		1
28		2		3		ar
29		24		26		1
30		24		23		1
31		35		26		ar
32		35		30		ar
33		31		30		ar
34		31		55		1
35		9		42		1
36		9		4		ar
37		17		23		ar
38		17		18		ar
39		3		39		1
40		3		4		ar
41		26		27		ar
42		30		29		ar
43		4		5		1
44		8		5		2
45		47		18		1
46		23		22		ar
47		7		5		2
48		27		52		1
49		27		28		ar
50		29		28		ar
51		29		54		1
52		5		6		1
53		18		19		ar
54		28		53		1
55		22		49		1
56		22		20		ar
57		19		20		ar
58		19		48		1
59		6		40		1
60		6		41		1
61		20		21		1

