@<TRIPOS>MOLECULE
MXD-2011-BMC-4704-7g
 52 54 0 0 0
SMALL
MULLIKEN_CHARGES
****
Gaussian 16 #p B3LYP/6-31G* opt
@<TRIPOS>ATOM
1		C		-4.0496		-1.6886		-2.6620		C.3		1		UNL1		-0.5676
2		C		-4.3402		-1.0153		-1.3400		C.ar		1		UNL1		0.1540
3		C		-5.6517		-0.6995		-0.9918		C.ar		1		UNL1		-0.2120
4		C		-5.9366		-0.0737		0.2218		C.ar		1		UNL1		-0.1237
5		S		-7.6340		0.3124		0.6307		S.O2		1		UNL1		1.1669
6		N		-8.2134		-1.1319		1.3190		N.3		1		UNL1		-0.8148
7		O		-8.3780		0.4798		-0.6218		O.2		1		UNL1		-0.5430
8		O		-7.6120		1.3441		1.6726		O.2		1		UNL1		-0.5274
9		C		-4.9153		0.2634		1.1060		C.ar		1		UNL1		-0.1642
10		C		-3.5965		-0.0424		0.7815		C.ar		1		UNL1		-0.1538
11		C		-3.3049		-0.6839		-0.4317		C.ar		1		UNL1		0.2946
12		N		-1.9834		-1.0120		-0.8034		N.am		1		UNL1		-0.7327
13		C		-0.8156		-0.8666		-0.0844		C.2		1		UNL1		0.6021
14		O		-0.7189		-0.3576		1.0161		O.2		1		UNL1		-0.4713
15		C		0.4046		-1.4718		-0.8119		C.3		1		UNL1		-0.1441
16		O		1.6220		-1.0671		-0.2402		O.3		1		UNL1		-0.5170
17		C		2.0473		0.2347		-0.3967		C.ar		1		UNL1		0.3478
18		C		1.4262		1.1615		-1.2378		C.ar		1		UNL1		-0.1719
19		C		1.9475		2.4490		-1.3710		C.ar		1		UNL1		-0.1403
20		C		3.0870		2.8002		-0.6548		C.ar		1		UNL1		-0.0610
21		CL		3.7502		4.4220		-0.8149		Cl		1		UNL1		-0.0239
22		C		3.7021		1.8858		0.1969		C.ar		1		UNL1		-0.1895
23		C		3.1911		0.5947		0.3381		C.ar		1		UNL1		0.0703
24		C		3.8661		-0.3833		1.3037		C.3		1		UNL1		0.0142
25		O		4.3020		0.2908		2.4810		O.3		1		UNL1		-0.6334
26		C		5.0784		-1.0596		0.6730		C.ar		1		UNL1		0.1262
27		C		4.8978		-2.0261		-0.3262		C.ar		1		UNL1		-0.1720
28		C		5.9994		-2.6388		-0.9218		C.ar		1		UNL1		-0.1347
29		C		7.2977		-2.3027		-0.5324		C.ar		1		UNL1		-0.1950
30		C		7.4523		-1.3462		0.4622		C.ar		1		UNL1		0.3847
31		F		8.7010		-1.0126		0.8571		F		1		UNL1		-0.3007
32		C		6.3728		-0.7183		1.0732		C.ar		1		UNL1		-0.2459
33		H		-3.5675		-2.6679		-2.5321		H		1		UNL1		0.1652
34		H		-3.3992		-1.0787		-3.3049		H		1		UNL1		0.1666
35		H		-4.9752		-1.8595		-3.2172		H		1		UNL1		0.1846
36		H		-6.4608		-0.9285		-1.6780		H		1		UNL1		0.1712
37		H		-8.3226		-1.0126		2.3247		H		1		UNL1		0.3539
38		H		-9.1070		-1.3562		0.8844		H		1		UNL1		0.3575
39		H		-5.1456		0.7764		2.0333		H		1		UNL1		0.1817
40		H		-2.7896		0.2140		1.4529		H		1		UNL1		0.1998
41		H		-1.8896		-1.4469		-1.7112		H		1		UNL1		0.3406
42		H		0.3730		-1.2613		-1.8914		H		1		UNL1		0.1568
43		H		0.3765		-2.5599		-0.6861		H		1		UNL1		0.1957
44		H		0.5274		0.9068		-1.7877		H		1		UNL1		0.1336
45		H		1.4644		3.1695		-2.0219		H		1		UNL1		0.1578
46		H		4.5769		2.1711		0.7705		H		1		UNL1		0.1720
47		H		3.1362		-1.1604		1.5624		H		1		UNL1		0.1622
48		H		3.5266		0.7292		2.8649		H		1		UNL1		0.4021
49		H		3.8922		-2.2961		-0.6343		H		1		UNL1		0.1339
50		H		5.8494		-3.3885		-1.6939		H		1		UNL1		0.1324
51		H		8.1721		-2.7662		-0.9769		H		1		UNL1		0.1425
52		H		6.5420		0.0107		1.8558		H		1		UNL1		0.1690
@<TRIPOS>BOND
1		34		1		1
2		35		1		1
3		1		33		1
4		1		2		1
5		45		19		1
6		42		15		1
7		44		18		1
8		41		12		1
9		50		28		1
10		36		3		1
11		19		18		ar
12		19		20		ar
13		2		3		ar
14		2		11		ar
15		18		17		ar
16		3		4		ar
17		51		29		1
18		28		29		ar
19		28		27		ar
20		21		20		1
21		15		43		1
22		15		16		1
23		15		13		1
24		12		11		1
25		12		13		1
26		20		22		ar
27		49		27		1
28		7		5		2
29		29		30		ar
30		11		10		ar
31		17		16		1
32		17		23		ar
33		27		26		ar
34		13		14		2
35		22		23		ar
36		22		46		1
37		4		5		1
38		4		9		ar
39		23		24		1
40		30		31		1
41		30		32		ar
42		5		6		1
43		5		8		2
44		26		32		ar
45		26		24		1
46		10		9		ar
47		10		40		1
48		38		6		1
49		32		52		1
50		9		39		1
51		24		47		1
52		24		25		1
53		6		37		1
54		25		48		1

