@<TRIPOS>MOLECULE
MXD-2011-CMC-2225-9c
 41 43 0 0 0
SMALL
MULLIKEN_CHARGES
****
Gaussian 16 #p B3LYP/6-31G* opt
@<TRIPOS>ATOM
1		C		-5.3069		-2.7783		1.6563		C.3		1		UNL1		-0.5296
2		C		-4.4857		-2.1178		0.5728		C.ar		1		UNL1		0.1734
3		C		-4.1003		-2.8261		-0.5721		C.ar		1		UNL1		-0.1736
4		C		-3.3123		-2.2233		-1.5537		C.ar		1		UNL1		-0.1384
5		C		-2.8944		-0.9020		-1.4085		C.ar		1		UNL1		-0.1395
6		C		-3.2726		-0.1675		-0.2751		C.ar		1		UNL1		0.0718
7		C		-2.8686		1.2636		-0.1147		C.2		1		UNL1		0.1621
8		N		-3.7039		2.2529		-0.0402		N.2		1		UNL1		-0.3041
9		N		-5.0351		2.0244		-0.0613		N.pl3		1		UNL1		-0.5400
10		C		-1.4345		1.6308		-0.0267		C.ar		1		UNL1		0.3183
11		C		-1.0144		2.9700		0.1073		C.ar		1		UNL1		-0.1843
12		C		0.3495		3.1848		0.1843		C.ar		1		UNL1		0.0636
13		N		1.2632		2.2006		0.1369		N.ar		1		UNL1		-0.4834
14		C		0.7586		0.9695		0.0083		C.ar		1		UNL1		0.6924
15		N		1.5984		-0.1281		-0.0497		N.pl3		1		UNL1		-0.7691
16		C		2.9841		-0.2555		0.0000		C.ar		1		UNL1		0.3843
17		C		3.8783		0.8255		0.1223		C.ar		1		UNL1		-0.1609
18		C		5.2465		0.5892		0.1608		C.ar		1		UNL1		-0.1538
19		C		5.7642		-0.7143		0.0800		C.ar		1		UNL1		0.1297
20		C		7.1757		-0.9430		0.1205		C.1		1		UNL1		0.2255
21		N		8.3244		-1.1311		0.1531		N.1		1		UNL1		-0.4880
22		C		4.8697		-1.7929		-0.0417		C.ar		1		UNL1		-0.1410
23		C		3.5048		-1.5643		-0.0807		C.ar		1		UNL1		-0.2061
24		N		-0.5443		0.6343		-0.0761		N.ar		1		UNL1		-0.5804
25		C		-4.0696		-0.7865		0.7001		C.ar		1		UNL1		-0.2210
26		H		-5.8841		-2.0436		2.2272		H		1		UNL1		0.1596
27		H		-6.0069		-3.5103		1.2392		H		1		UNL1		0.1589
28		H		-4.6654		-3.3130		2.3693		H		1		UNL1		0.1712
29		H		-4.4206		-3.8583		-0.6960		H		1		UNL1		0.1270
30		H		-3.0238		-2.7872		-2.4369		H		1		UNL1		0.1338
31		H		-2.2738		-0.4373		-2.1680		H		1		UNL1		0.1373
32		H		-5.3512		1.1538		-0.4899		H		1		UNL1		0.3250
33		H		-5.5422		2.8461		-0.3641		H		1		UNL1		0.3433
34		H		-1.7320		3.7780		0.1493		H		1		UNL1		0.1624
35		H		0.7487		4.1921		0.2895		H		1		UNL1		0.1498
36		H		1.0730		-0.9888		-0.1374		H		1		UNL1		0.3458
37		H		3.4866		1.8305		0.1856		H		1		UNL1		0.1893
38		H		5.9294		1.4278		0.2553		H		1		UNL1		0.1559
39		H		5.2532		-2.8062		-0.1048		H		1		UNL1		0.1550
40		H		2.8230		-2.4065		-0.1747		H		1		UNL1		0.1344
41		H		-4.3639		-0.2192		1.5800		H		1		UNL1		0.1434
@<TRIPOS>BOND
1		30		4		1
2		31		5		1
3		4		5		ar
4		4		3		ar
5		5		6		ar
6		29		3		1
7		3		2		ar
8		32		9		1
9		33		9		1
10		6		7		1
11		6		25		ar
12		40		23		1
13		36		15		1
14		7		8		2
15		7		10		1
16		39		22		1
17		23		22		ar
18		23		16		ar
19		24		10		ar
20		24		14		ar
21		9		8		1
22		15		16		1
23		15		14		1
24		22		19		ar
25		10		11		ar
26		16		17		ar
27		14		13		ar
28		19		20		1
29		19		18		ar
30		11		34		1
31		11		12		ar
32		20		21		3
33		17		18		ar
34		17		37		1
35		13		12		ar
36		18		38		1
37		12		35		1
38		2		25		ar
39		2		1		1
40		25		41		1
41		27		1		1
42		1		26		1
43		1		28		1

