@<TRIPOS>MOLECULE
MXD-2011-CMC-2225-9a
 38 40 0 0 0
SMALL
MULLIKEN_CHARGES
****
Gaussian 16 #p B3LYP/6-31G* opt
@<TRIPOS>ATOM
1		N		8.1246		0.7728		-0.0733		N.1		1		UNL1		-0.4877
2		C		6.9662		0.6556		-0.0647		C.1		1		UNL1		0.2256
3		C		5.5427		0.5139		-0.0537		C.ar		1		UNL1		0.1298
4		C		4.7123		1.6488		-0.0800		C.ar		1		UNL1		-0.1410
5		C		3.3355		1.5043		-0.0685		C.ar		1		UNL1		-0.2061
6		C		2.7388		0.2264		-0.0304		C.ar		1		UNL1		0.3841
7		N		1.3468		0.1848		-0.0192		N.pl3		1		UNL1		-0.7691
8		C		0.4440		-0.8625		0.0070		C.ar		1		UNL1		0.6929
9		N		0.8761		-2.1274		0.0253		N.ar		1		UNL1		-0.4831
10		C		-0.0938		-3.0570		0.0470		C.ar		1		UNL1		0.0639
11		C		-1.4439		-2.7576		0.0513		C.ar		1		UNL1		-0.1843
12		C		-1.7854		-1.3899		0.0303		C.ar		1		UNL1		0.3184
13		C		-3.1968		-0.9340		0.0269		C.2		1		UNL1		0.1634
14		N		-4.0878		-1.8766		0.0252		N.2		1		UNL1		-0.3034
15		N		-5.4028		-1.5738		-0.0262		N.pl3		1		UNL1		-0.5399
16		C		-3.5185		0.5263		0.0209		C.ar		1		UNL1		0.0656
17		C		-3.1123		1.3603		1.0746		C.ar		1		UNL1		-0.1331
18		C		-3.4420		2.7146		1.0742		C.ar		1		UNL1		-0.1410
19		C		-4.1769		3.2592		0.0182		C.ar		1		UNL1		-0.1233
20		C		-4.5839		2.4407		-1.0361		C.ar		1		UNL1		-0.1355
21		C		-4.2607		1.0827		-1.0332		C.ar		1		UNL1		-0.1641
22		N		-0.8383		-0.4464		0.0088		N.ar		1		UNL1		-0.5812
23		C		3.5686		-0.9109		-0.0046		C.ar		1		UNL1		-0.1608
24		C		4.9492		-0.7590		-0.0163		C.ar		1		UNL1		-0.1538
25		H		5.1548		2.6393		-0.1095		H		1		UNL1		0.1552
26		H		2.7037		2.3894		-0.0895		H		1		UNL1		0.1345
27		H		0.8727		1.0788		-0.0424		H		1		UNL1		0.3458
28		H		0.2464		-4.0910		0.0617		H		1		UNL1		0.1502
29		H		-2.2076		-3.5231		0.0669		H		1		UNL1		0.1627
30		H		-5.9672		-2.3308		0.3376		H		1		UNL1		0.3441
31		H		-5.6819		-0.6477		0.2991		H		1		UNL1		0.3253
32		H		-2.5314		0.9430		1.8911		H		1		UNL1		0.1399
33		H		-3.1225		3.3470		1.8983		H		1		UNL1		0.1357
34		H		-4.4299		4.3160		0.0177		H		1		UNL1		0.1359
35		H		-5.1518		2.8575		-1.8636		H		1		UNL1		0.1372
36		H		-4.5768		0.4485		-1.8569		H		1		UNL1		0.1520
37		H		3.1187		-1.8928		0.0232		H		1		UNL1		0.1893
38		H		5.5824		-1.6406		0.0037		H		1		UNL1		0.1561
@<TRIPOS>BOND
1		35		20		1
2		36		21		1
3		20		21		ar
4		20		19		ar
5		21		16		ar
6		25		4		1
7		26		5		1
8		4		5		ar
9		4		3		ar
10		1		2		3
11		5		6		ar
12		2		3		1
13		3		24		ar
14		27		7		1
15		6		7		1
16		6		23		ar
17		15		14		1
18		15		31		1
19		15		30		1
20		7		8		1
21		24		23		ar
22		24		38		1
23		23		37		1
24		8		22		ar
25		8		9		ar
26		22		12		ar
27		34		19		1
28		19		18		ar
29		16		13		1
30		16		17		ar
31		14		13		2
32		9		10		ar
33		13		12		1
34		12		11		ar
35		10		11		ar
36		10		28		1
37		11		29		1
38		18		17		ar
39		18		33		1
40		17		32		1

