@<TRIPOS>MOLECULE
MXD-2011-BMC-4704-7b
 55 57 0 0 0
SMALL
MULLIKEN_CHARGES
****
Gaussian 16 #p B3LYP/6-31G* opt
@<TRIPOS>ATOM
1		C		4.2913		-2.0842		-2.3571		C.3		1		UNL1		-0.5680
2		C		4.3181		-1.0361		-1.2679		C.ar		1		UNL1		0.1562
3		C		5.5290		-0.6731		-0.6790		C.ar		1		UNL1		-0.2279
4		C		5.5741		0.2838		0.3354		C.ar		1		UNL1		-0.1416
5		S		7.1579		0.7407		1.0499		S.O2		1		UNL1		1.1641
6		N		7.7148		2.0928		0.2102		N.3		1		UNL1		-0.7853
7		O		6.9045		1.2071		2.4115		O.2		1		UNL1		-0.5239
8		O		8.1018		-0.3301		0.7323		O.2		1		UNL1		-0.5277
9		C		4.4026		0.8872		0.7910		C.ar		1		UNL1		-0.1718
10		C		3.1820		0.5456		0.2172		C.ar		1		UNL1		-0.1527
11		C		3.1340		-0.4080		-0.8122		C.ar		1		UNL1		0.2934
12		N		1.9180		-0.7912		-1.4175		N.am		1		UNL1		-0.7318
13		C		0.6523		-0.2745		-1.2317		C.2		1		UNL1		0.6008
14		O		0.3585		0.6060		-0.4453		O.2		1		UNL1		-0.4667
15		C		-0.3881		-0.9141		-2.1770		C.3		1		UNL1		-0.1434
16		O		-1.7062		-0.5854		-1.8302		O.3		1		UNL1		-0.5145
17		C		-2.2821		-1.1609		-0.7180		C.ar		1		UNL1		0.3331
18		C		-1.6408		-2.1127		0.0814		C.ar		1		UNL1		-0.1731
19		C		-2.3054		-2.6798		1.1681		C.ar		1		UNL1		-0.1426
20		C		-3.6099		-2.2858		1.4503		C.ar		1		UNL1		-0.0628
21		CL		-4.4567		-2.9998		2.8175		Cl		1		UNL1		-0.0239
22		C		-4.2479		-1.3286		0.6671		C.ar		1		UNL1		-0.1786
23		C		-3.5956		-0.7480		-0.4235		C.ar		1		UNL1		0.0744
24		C		-4.3458		0.2486		-1.3129		C.3		1		UNL1		0.0084
25		O		-5.3796		-0.4321		-2.0363		O.3		1		UNL1		-0.6275
26		C		-4.9882		1.3783		-0.5207		C.ar		1		UNL1		0.0699
27		C		-6.3616		1.3474		-0.2548		C.ar		1		UNL1		-0.1800
28		C		-6.9727		2.3600		0.4861		C.ar		1		UNL1		-0.1354
29		C		-6.2077		3.4205		0.9656		C.ar		1		UNL1		-0.1203
30		C		-4.8400		3.4605		0.6927		C.ar		1		UNL1		-0.1901
31		C		-4.2070		2.4555		-0.0482		C.ar		1		UNL1		0.1441
32		C		-2.7252		2.5574		-0.3307		C.3		1		UNL1		-0.5465
33		H		5.3014		-2.4437		-2.5690		H		1		UNL1		0.1853
34		H		3.6937		-2.9622		-2.0737		H		1		UNL1		0.1684
35		H		3.8835		-1.6935		-3.3001		H		1		UNL1		0.1647
36		H		6.4486		-1.1559		-0.9948		H		1		UNL1		0.1753
37		H		7.1192		2.9065		0.3412		H		1		UNL1		0.3493
38		H		7.8979		1.8965		-0.7705		H		1		UNL1		0.3469
39		H		4.4390		1.6016		1.6071		H		1		UNL1		0.1805
40		H		2.2641		1.0007		0.5609		H		1		UNL1		0.2019
41		H		1.9957		-1.5265		-2.1070		H		1		UNL1		0.3413
42		H		-0.2419		-0.4998		-3.1811		H		1		UNL1		0.1942
43		H		-0.2439		-2.0035		-2.2422		H		1		UNL1		0.1564
44		H		-0.6193		-2.4165		-0.1166		H		1		UNL1		0.1336
45		H		-1.8070		-3.4151		1.7905		H		1		UNL1		0.1581
46		H		-5.2593		-1.0172		0.9043		H		1		UNL1		0.1726
47		H		-3.6285		0.6776		-2.0204		H		1		UNL1		0.1506
48		H		-4.9699		-1.2019		-2.4600		H		1		UNL1		0.3922
49		H		-6.9512		0.5279		-0.6502		H		1		UNL1		0.1538
50		H		-8.0410		2.3181		0.6814		H		1		UNL1		0.1255
51		H		-6.6695		4.2169		1.5436		H		1		UNL1		0.1246
52		H		-4.2440		4.2937		1.0586		H		1		UNL1		0.1194
53		H		-2.5182		2.5911		-1.4083		H		1		UNL1		0.1557
54		H		-2.1556		1.7106		0.0667		H		1		UNL1		0.1909
55		H		-2.3119		3.4696		0.1108		H		1		UNL1		0.1504
@<TRIPOS>BOND
1		35		1		1
2		42		15		1
3		33		1		1
4		48		25		1
5		1		34		1
6		1		2		1
7		43		15		1
8		15		16		1
9		15		13		1
10		41		12		1
11		25		24		1
12		47		24		1
13		16		17		1
14		12		13		1
15		12		11		1
16		53		32		1
17		24		26		1
18		24		23		1
19		2		11		ar
20		2		3		ar
21		13		14		2
22		36		3		1
23		11		10		ar
24		38		6		1
25		17		23		ar
26		17		18		ar
27		3		4		ar
28		49		27		1
29		26		27		ar
30		26		31		ar
31		23		22		ar
32		32		31		1
33		32		54		1
34		32		55		1
35		27		28		ar
36		44		18		1
37		31		30		ar
38		18		19		ar
39		6		37		1
40		6		5		1
41		10		40		1
42		10		9		ar
43		4		9		ar
44		4		5		1
45		28		50		1
46		28		29		ar
47		22		46		1
48		22		20		ar
49		30		29		ar
50		30		52		1
51		8		5		2
52		9		39		1
53		29		51		1
54		5		7		2
55		19		20		ar
56		19		45		1
57		20		21		1

