@<TRIPOS>MOLECULE
MXD-2011-BMC-4704-7h
 54 56 0 0 0
SMALL
MULLIKEN_CHARGES
****
Gaussian 16 #p B3LYP/6-31G* opt
@<TRIPOS>ATOM
1		C		4.8812		-2.1109		-2.3353		C.3		1		UNL1		-0.5696
2		C		4.8442		-1.0073		-1.3024		C.ar		1		UNL1		0.1572
3		C		6.0310		-0.5428		-0.7357		C.ar		1		UNL1		-0.2271
4		C		6.0182		0.4675		0.2263		C.ar		1		UNL1		-0.1400
5		S		7.5728		1.0539		0.9140		S.O2		1		UNL1		1.1665
6		N		8.0498		2.3890		0.0044		N.3		1		UNL1		-0.7855
7		O		7.2879		1.5742		2.2492		O.2		1		UNL1		-0.5224
8		O		8.5763		0.0238		0.6508		O.2		1		UNL1		-0.5263
9		C		4.8133		1.0235		0.6529		C.ar		1		UNL1		-0.1713
10		C		3.6153		0.5804		0.1003		C.ar		1		UNL1		-0.1482
11		C		3.6259		-0.4261		-0.8774		C.ar		1		UNL1		0.2904
12		N		2.4349		-0.9142		-1.4635		N.am		1		UNL1		-0.7260
13		C		1.1465		-0.4672		-1.3239		C.2		1		UNL1		0.6204
14		O		0.8041		0.4505		-0.5913		O.2		1		UNL1		-0.4983
15		C		0.1500		-1.2160		-2.2328		C.3		1		UNL1		-0.1373
16		O		-1.1865		-0.9438		-1.9014		O.3		1		UNL1		-0.5169
17		C		-1.6994		-1.4633		-0.7205		C.ar		1		UNL1		0.3082
18		C		-1.4780		-2.7859		-0.3334		C.ar		1		UNL1		-0.1696
19		C		-2.0464		-3.2760		0.8416		C.ar		1		UNL1		-0.1382
20		C		-2.8425		-2.4315		1.6111		C.ar		1		UNL1		-0.0609
21		CL		-3.5609		-3.0357		3.0976		Cl		1		UNL1		-0.0170
22		C		-3.0807		-1.1169		1.2177		C.ar		1		UNL1		-0.1850
23		C		-2.5175		-0.6134		0.0423		C.ar		1		UNL1		0.1031
24		C		-2.6829		0.8562		-0.3613		C.3		1		UNL1		0.0310
25		O		-1.6833		1.6514		0.2563		O.3		1		UNL1		-0.6664
26		C		-4.0449		1.4226		0.0042		C.ar		1		UNL1		0.0867
27		C		-4.1844		2.3941		1.0018		C.ar		1		UNL1		-0.1485
28		C		-5.4432		2.9120		1.3230		C.ar		1		UNL1		-0.1433
29		C		-6.5814		2.4732		0.6535		C.ar		1		UNL1		-0.1475
30		C		-6.4251		1.5078		-0.3411		C.ar		1		UNL1		0.2677
31		N		-7.6147		1.0357		-1.0684		N.pl3		1		UNL1		0.3801
32		O		-7.4518		0.1917		-1.9502		O.2		1		UNL1		-0.3980
33		O		-8.7050		1.5127		-0.7535		O.2		1		UNL1		-0.3962
34		C		-5.1828		0.9781		-0.6750		C.ar		1		UNL1		-0.1899
35		H		4.4508		-1.7959		-3.2961		H		1		UNL1		0.1664
36		H		4.3396		-3.0083		-2.0039		H		1		UNL1		0.1700
37		H		5.9114		-2.4184		-2.5309		H		1		UNL1		0.1877
38		H		6.9778		-0.9865		-1.0273		H		1		UNL1		0.1774
39		H		7.4123		3.1758		0.0946		H		1		UNL1		0.3506
40		H		8.2532		2.1552		-0.9639		H		1		UNL1		0.3482
41		H		4.8065		1.7801		1.4308		H		1		UNL1		0.1829
42		H		2.6734		0.9986		0.4241		H		1		UNL1		0.1997
43		H		2.5597		-1.6936		-2.0955		H		1		UNL1		0.3456
44		H		0.3740		-2.2920		-2.2351		H		1		UNL1		0.1550
45		H		0.2782		-0.8539		-3.2594		H		1		UNL1		0.1977
46		H		-0.8788		-3.4503		-0.9479		H		1		UNL1		0.1382
47		H		-1.8803		-4.3032		1.1475		H		1		UNL1		0.1598
48		H		-3.7070		-0.4769		1.8293		H		1		UNL1		0.1680
49		H		-2.5857		0.9093		-1.4538		H		1		UNL1		0.1492
50		H		-0.8193		1.2997		-0.0329		H		1		UNL1		0.4408
51		H		-3.2953		2.7447		1.5128		H		1		UNL1		0.1760
52		H		-5.5344		3.6660		2.0994		H		1		UNL1		0.1476
53		H		-7.5683		2.8576		0.8784		H		1		UNL1		0.1795
54		H		-5.1202		0.2294		-1.4566		H		1		UNL1		0.1777
@<TRIPOS>BOND
1		35		1		1
2		45		15		1
3		37		1		1
4		1		36		1
5		1		2		1
6		44		15		1
7		15		16		1
8		15		13		1
9		43		12		1
10		32		31		2
11		16		17		1
12		12		13		1
13		12		11		1
14		54		34		1
15		49		24		1
16		13		14		2
17		2		11		ar
18		2		3		ar
19		31		33		2
20		31		30		1
21		38		3		1
22		40		6		1
23		46		18		1
24		11		10		ar
25		3		4		ar
26		17		18		ar
27		17		23		ar
28		34		30		ar
29		34		26		ar
30		24		26		1
31		24		23		1
32		24		25		1
33		30		29		ar
34		18		19		ar
35		50		25		1
36		26		27		ar
37		6		39		1
38		6		5		1
39		23		22		ar
40		10		42		1
41		10		9		ar
42		4		9		ar
43		4		5		1
44		8		5		2
45		9		41		1
46		29		53		1
47		29		28		ar
48		19		47		1
49		19		20		ar
50		5		7		2
51		27		28		ar
52		27		51		1
53		22		20		ar
54		22		48		1
55		28		52		1
56		20		21		1

