@<TRIPOS>MOLECULE
MXD-2011-BMC-4704-7n
 52 54 0 0 0
SMALL
MULLIKEN_CHARGES
****
Gaussian 16 #p B3LYP/6-31G* opt
@<TRIPOS>ATOM
1		C		-4.9130		-2.1316		-2.1108		C.3		1		UNL1		-0.5678
2		C		-4.9240		-0.9913		-1.1182		C.ar		1		UNL1		0.1542
3		C		-6.1216		-0.5912		-0.5292		C.ar		1		UNL1		-0.2121
4		C		-6.1484		0.4556		0.3923		C.ar		1		UNL1		-0.1235
5		S		-7.7072		0.9386		1.1236		S.O2		1		UNL1		1.1670
6		N		-8.3589		2.0225		-0.0147		N.3		1		UNL1		-0.8148
7		O		-8.5961		-0.2277		1.1136		O.2		1		UNL1		-0.5430
8		O		-7.4058		1.6832		2.3503		O.2		1		UNL1		-0.5273
9		C		-4.9770		1.1143		0.7560		C.ar		1		UNL1		-0.1641
10		C		-3.7675		0.7338		0.1810		C.ar		1		UNL1		-0.1542
11		C		-3.7364		-0.3093		-0.7566		C.ar		1		UNL1		0.2937
12		N		-2.5338		-0.7306		-1.3650		N.am		1		UNL1		-0.7309
13		C		-1.2672		-0.1972		-1.2493		C.2		1		UNL1		0.5997
14		O		-0.9527		0.7263		-0.5224		O.2		1		UNL1		-0.4646
15		C		-0.2559		-0.8672		-2.2040		C.3		1		UNL1		-0.1439
16		O		1.0788		-0.6383		-1.8261		O.3		1		UNL1		-0.5356
17		C		1.6474		-1.3791		-0.8118		C.ar		1		UNL1		0.3451
18		C		0.9003		-2.2561		-0.0179		C.ar		1		UNL1		-0.1733
19		C		1.5046		-2.9972		0.9951		C.ar		1		UNL1		-0.1420
20		C		2.8697		-2.8512		1.2113		C.ar		1		UNL1		-0.0619
21		CL		3.6601		-3.7781		2.4790		Cl		1		UNL1		-0.0204
22		C		3.6177		-1.9763		0.4299		C.ar		1		UNL1		-0.1921
23		C		3.0315		-1.2222		-0.5923		C.ar		1		UNL1		0.1129
24		C		3.9811		-0.3156		-1.4007		C.3		1		UNL1		-0.0318
25		O		3.4730		0.1866		-2.6181		O.3		1		UNL1		-0.6324
26		C		4.6120		0.7909		-0.5386		C.ar		1		UNL1		0.2080
27		C		5.9971		0.7580		-0.3350		C.ar		1		UNL1		-0.1982
28		C		6.6385		1.7411		0.4153		C.ar		1		UNL1		-0.0607
29		CL		8.3785		1.6528		0.6454		Cl		1		UNL1		-0.0156
30		C		5.9208		2.7919		0.9786		C.ar		1		UNL1		-0.1261
31		C		4.5427		2.8452		0.7778		C.ar		1		UNL1		-0.1248
32		C		3.9012		1.8587		0.0304		C.ar		1		UNL1		-0.1387
33		CL		2.1625		1.9897		-0.1769		Cl		1		UNL1		0.0056
34		H		-4.2878		-2.9704		-1.7732		H		1		UNL1		0.1668
35		H		-4.5471		-1.8187		-3.0989		H		1		UNL1		0.1657
36		H		-5.9223		-2.5252		-2.2541		H		1		UNL1		0.1847
37		H		-7.0428		-1.1086		-0.7774		H		1		UNL1		0.1714
38		H		-9.3265		1.7569		-0.1905		H		1		UNL1		0.3575
39		H		-8.3070		2.9728		0.3480		H		1		UNL1		0.3540
40		H		-5.0054		1.9069		1.4957		H		1		UNL1		0.1821
41		H		-2.8473		1.2302		0.4533		H		1		UNL1		0.2018
42		H		-2.6274		-1.5070		-2.0053		H		1		UNL1		0.3413
43		H		-0.4559		-1.9420		-2.3207		H		1		UNL1		0.1577
44		H		-0.3601		-0.3991		-3.1893		H		1		UNL1		0.1994
45		H		-0.1689		-2.3569		-0.1620		H		1		UNL1		0.1375
46		H		0.9164		-3.6706		1.6087		H		1		UNL1		0.1594
47		H		4.6818		-1.8747		0.6194		H		1		UNL1		0.1585
48		H		4.8163		-0.9593		-1.7007		H		1		UNL1		0.1612
49		H		2.5606		0.4781		-2.4639		H		1		UNL1		0.4291
50		H		6.5832		-0.0426		-0.7758		H		1		UNL1		0.1586
51		H		6.4248		3.5560		1.5601		H		1		UNL1		0.1632
52		H		3.9603		3.6553		1.2037		H		1		UNL1		0.1638
@<TRIPOS>BOND
1		44		15		1
2		35		1		1
3		25		49		1
4		25		24		1
5		43		15		1
6		36		1		1
7		15		16		1
8		15		13		1
9		1		34		1
10		1		2		1
11		42		12		1
12		16		17		1
13		48		24		1
14		24		23		1
15		24		26		1
16		12		13		1
17		12		11		1
18		13		14		2
19		2		11		ar
20		2		3		ar
21		17		23		ar
22		17		18		ar
23		37		3		1
24		50		27		1
25		11		10		ar
26		23		22		ar
27		26		27		ar
28		26		32		ar
29		3		4		ar
30		27		28		ar
31		38		6		1
32		33		32		1
33		45		18		1
34		18		19		ar
35		6		39		1
36		6		5		1
37		32		31		ar
38		10		41		1
39		10		9		ar
40		4		9		ar
41		4		5		1
42		28		29		1
43		28		30		ar
44		22		47		1
45		22		20		ar
46		9		40		1
47		31		30		ar
48		31		52		1
49		30		51		1
50		19		20		ar
51		19		46		1
52		7		5		2
53		5		8		2
54		20		21		1

