@<TRIPOS>MOLECULE
MXD-2011-CMC-2225-9k
 38 40 0 0 0
SMALL
MULLIKEN_CHARGES
****
Gaussian 16 #p B3LYP/6-31G* opt
@<TRIPOS>ATOM
1		N		-8.7821		0.8940		0.4852		N.1		1		UNL1		-0.4875
2		C		-7.6332		0.7474		0.3662		C.1		1		UNL1		0.2257
3		C		-6.2214		0.5697		0.2193		C.ar		1		UNL1		0.1299
4		C		-5.3707		1.6833		0.0992		C.ar		1		UNL1		-0.1409
5		C		-4.0053		1.5041		-0.0434		C.ar		1		UNL1		-0.2060
6		C		-3.4408		0.2115		-0.0712		C.ar		1		UNL1		0.3842
7		N		-2.0581		0.1348		-0.2204		N.pl3		1		UNL1		-0.7691
8		C		-1.1835		-0.9343		-0.2815		C.ar		1		UNL1		0.6948
9		N		-1.6403		-2.1875		-0.1893		N.ar		1		UNL1		-0.4827
10		C		-0.6980		-3.1425		-0.2586		C.ar		1		UNL1		0.0645
11		C		0.6511		-2.8792		-0.4128		C.ar		1		UNL1		-0.1846
12		C		1.0180		-1.5218		-0.5002		C.ar		1		UNL1		0.3328
13		C		2.4249		-1.0968		-0.6630		C.2		1		UNL1		0.1471
14		N		3.3169		-2.0343		-0.6774		N.2		1		UNL1		-0.2890
15		N		4.6158		-1.7300		-0.8713		N.pl3		1		UNL1		-0.5349
16		C		2.7337		0.3595		-0.8322		C.ar		1		UNL1		0.0676
17		C		2.5125		0.9766		-2.0736		C.ar		1		UNL1		-0.1325
18		C		2.8107		2.3215		-2.2781		C.ar		1		UNL1		-0.1335
19		C		3.3430		3.0826		-1.2354		C.ar		1		UNL1		-0.1225
20		C		3.5764		2.4962		0.0073		C.ar		1		UNL1		-0.1556
21		C		3.2710		1.1480		0.1931		C.ar		1		UNL1		0.0365
22		BR		3.6066		0.3726		1.9138		Br		1		UNL1		-0.1223
23		N		0.0999		-0.5519		-0.4373		N.ar		1		UNL1		-0.5832
24		C		-4.2908		-0.9046		0.0493		C.ar		1		UNL1		-0.1606
25		C		-5.6598		-0.7178		0.1920		C.ar		1		UNL1		-0.1537
26		H		-5.7884		2.6848		0.1188		H		1		UNL1		0.1553
27		H		-3.3576		2.3730		-0.1349		H		1		UNL1		0.1344
28		H		-1.5674		1.0168		-0.2957		H		1		UNL1		0.3456
29		H		-1.0601		-4.1665		-0.1859		H		1		UNL1		0.1510
30		H		1.3941		-3.6635		-0.4653		H		1		UNL1		0.1634
31		H		4.9230		-0.7972		-0.5992		H		1		UNL1		0.3313
32		H		5.2186		-2.4698		-0.5353		H		1		UNL1		0.3466
33		H		2.0947		0.3826		-2.8811		H		1		UNL1		0.1517
34		H		2.6282		2.7745		-3.2482		H		1		UNL1		0.1443
35		H		3.5787		4.1325		-1.3847		H		1		UNL1		0.1462
36		H		3.9880		3.0734		0.8280		H		1		UNL1		0.1599
37		H		-3.8655		-1.8975		0.0297		H		1		UNL1		0.1894
38		H		-6.3088		-1.5831		0.2844		H		1		UNL1		0.1563
@<TRIPOS>BOND
1		34		18		1
2		33		17		1
3		18		17		ar
4		18		19		ar
5		17		16		ar
6		35		19		1
7		19		20		ar
8		15		14		1
9		15		31		1
10		15		32		1
11		16		13		1
12		16		21		ar
13		14		13		2
14		13		12		1
15		12		23		ar
16		12		11		ar
17		30		11		1
18		23		8		ar
19		11		10		ar
20		28		7		1
21		8		7		1
22		8		9		ar
23		10		9		ar
24		10		29		1
25		7		6		1
26		27		5		1
27		6		5		ar
28		6		24		ar
29		5		4		ar
30		20		21		ar
31		20		36		1
32		37		24		1
33		24		25		ar
34		4		26		1
35		4		3		ar
36		25		3		ar
37		25		38		1
38		21		22		1
39		3		2		1
40		2		1		3

