@<TRIPOS>MOLECULE
MXD-2011-BMC-4601-10u
 63 66 0 0 0
SMALL
MULLIKEN_CHARGES
****
Gaussian 16 #p B3LYP/6-31G* opt
@<TRIPOS>ATOM
1		C		2.6241		5.8161		1.0848		C.3		1		UNL1		-0.5355
2		C		2.4136		4.3867		0.6515		C.ar		1		UNL1		0.1391
3		C		1.5425		4.0934		-0.4079		C.ar		1		UNL1		-0.1867
4		C		1.3236		2.7876		-0.8270		C.ar		1		UNL1		-0.1593
5		C		1.9911		1.7301		-0.1918		C.ar		1		UNL1		0.0907
6		C		1.7163		0.3386		-0.6398		C.2		1		UNL1		0.3248
7		O		0.7957		0.0833		-1.4095		O.2		1		UNL1		-0.4666
8		C		2.5738		-0.7963		-0.1177		C.ar		1		UNL1		-0.0864
9		C		1.9752		-1.7590		0.6906		C.ar		1		UNL1		0.3745
10		O		0.6576		-1.5609		0.9897		O.3		1		UNL1		-0.5406
11		C		-0.0607		-2.5228		1.7507		C.3		1		UNL1		-0.1261
12		C		-1.5603		-2.2103		1.7271		C.2		1		UNL1		0.5882
13		O		-2.2729		-2.7135		2.5828		O.2		1		UNL1		-0.4963
14		N		-1.9697		-1.4227		0.6851		N.am		1		UNL1		-0.7325
15		C		-3.2823		-0.9919		0.3925		C.ar		1		UNL1		0.2869
16		C		-4.3178		-1.0972		1.3355		C.ar		1		UNL1		-0.1480
17		C		-5.5950		-0.6412		1.0256		C.ar		1		UNL1		-0.1748
18		C		-5.8402		-0.0837		-0.2285		C.ar		1		UNL1		-0.1418
19		S		-7.4929		0.4727		-0.6530		S.O2		1		UNL1		1.1603
20		N		-8.3168		-0.8558		-1.2936		N.3		1		UNL1		-0.7853
21		O		-8.1848		0.7915		0.5950		O.2		1		UNL1		-0.5279
22		O		-7.3680		1.4209		-1.7597		O.2		1		UNL1		-0.5297
23		C		-4.8142		0.0255		-1.1681		C.ar		1		UNL1		-0.2293
24		C		-3.5249		-0.4252		-0.8821		C.ar		1		UNL1		0.1515
25		C		-2.4362		-0.3106		-1.9217		C.3		1		UNL1		-0.5658
26		C		2.7187		-2.8535		1.1973		C.ar		1		UNL1		-0.1920
27		C		4.0430		-2.9966		0.8568		C.ar		1		UNL1		-0.1922
28		C		4.6872		-2.0657		0.0045		C.ar		1		UNL1		0.1371
29		C		6.0445		-2.2247		-0.3653		C.ar		1		UNL1		-0.2160
30		C		6.6599		-1.3155		-1.2078		C.ar		1		UNL1		0.1345
31		C		8.0345		-1.4841		-1.5752		C.1		1		UNL1		0.2345
32		N		9.1512		-1.6138		-1.8757		N.1		1		UNL1		-0.4763
33		C		5.9191		-0.2084		-1.7151		C.ar		1		UNL1		-0.1426
34		C		4.6038		-0.0329		-1.3665		C.ar		1		UNL1		-0.2018
35		C		3.9405		-0.9438		-0.4913		C.ar		1		UNL1		0.1207
36		C		2.8657		2.0194		0.8675		C.ar		1		UNL1		-0.2361
37		C		3.0849		3.3275		1.3029		C.ar		1		UNL1		0.1328
38		C		4.0257		3.5970		2.4533		C.3		1		UNL1		-0.5343
39		H		2.3406		5.9638		2.1348		H		1		UNL1		0.1703
40		H		3.6776		6.1121		0.9998		H		1		UNL1		0.1688
41		H		2.0314		6.5059		0.4775		H		1		UNL1		0.1645
42		H		1.0272		4.9101		-0.9073		H		1		UNL1		0.1375
43		H		0.6443		2.5668		-1.6436		H		1		UNL1		0.1609
44		H		0.0779		-3.5324		1.3409		H		1		UNL1		0.1831
45		H		0.2585		-2.5247		2.7986		H		1		UNL1		0.1866
46		H		-1.2290		-1.0976		0.0726		H		1		UNL1		0.3826
47		H		-4.1121		-1.5354		2.3015		H		1		UNL1		0.1922
48		H		-6.3886		-0.6949		1.7636		H		1		UNL1		0.1755
49		H		-8.4332		-1.6003		-0.6102		H		1		UNL1		0.3468
50		H		-7.8936		-1.1901		-2.1561		H		1		UNL1		0.3455
51		H		-5.0203		0.4843		-2.1302		H		1		UNL1		0.1706
52		H		-1.9985		-1.2881		-2.1621		H		1		UNL1		0.1686
53		H		-1.6073		0.3333		-1.6051		H		1		UNL1		0.1983
54		H		-2.8380		0.1071		-2.8489		H		1		UNL1		0.1670
55		H		2.2520		-3.5751		1.8572		H		1		UNL1		0.1576
56		H		4.6123		-3.8371		1.2446		H		1		UNL1		0.1528
57		H		6.6021		-3.0746		0.0169		H		1		UNL1		0.1625
58		H		6.4084		0.4922		-2.3837		H		1		UNL1		0.1622
59		H		4.0577		0.8128		-1.7695		H		1		UNL1		0.1590
60		H		3.3797		1.2060		1.3715		H		1		UNL1		0.1407
61		H		3.5143		4.0953		3.2868		H		1		UNL1		0.1669
62		H		4.4579		2.6676		2.8353		H		1		UNL1		0.1616
63		H		4.8540		4.2522		2.1547		H		1		UNL1		0.1664
@<TRIPOS>BOND
1		54		25		1
2		58		33		1
3		52		25		1
4		50		20		1
5		51		23		1
6		25		53		1
7		25		24		1
8		32		31		3
9		59		34		1
10		22		19		2
11		33		34		ar
12		33		30		ar
13		43		4		1
14		31		30		1
15		7		6		2
16		34		35		ar
17		20		19		1
18		20		49		1
19		30		29		ar
20		23		24		ar
21		23		18		ar
22		42		3		1
23		24		15		ar
24		4		3		ar
25		4		5		ar
26		19		18		1
27		19		21		2
28		6		5		1
29		6		8		1
30		35		8		ar
31		35		28		ar
32		3		2		ar
33		29		28		ar
34		29		57		1
35		18		17		ar
36		5		36		ar
37		8		9		ar
38		28		27		ar
39		46		14		1
40		15		14		1
41		15		16		ar
42		41		1		1
43		2		1		1
44		2		37		ar
45		14		12		1
46		9		10		1
47		9		26		ar
48		27		26		ar
49		27		56		1
50		36		37		ar
51		36		60		1
52		10		11		1
53		40		1		1
54		17		16		ar
55		17		48		1
56		1		39		1
57		26		55		1
58		37		38		1
59		16		47		1
60		44		11		1
61		12		11		1
62		12		13		2
63		11		45		1
64		63		38		1
65		38		62		1
66		38		61		1

