@<TRIPOS>MOLECULE
MXD-2011-BMC-4704-7q
 52 54 0 0 0
SMALL
MULLIKEN_CHARGES
****
Gaussian 16 #p B3LYP/6-31G* opt
@<TRIPOS>ATOM
1		C		4.4314		0.2428		3.2729		C.3		1		UNL1		-0.5694
2		C		4.7268		0.3373		1.7931		C.ar		1		UNL1		0.1550
3		C		6.0452		0.4221		1.3495		C.ar		1		UNL1		-0.2125
4		C		6.3348		0.5160		-0.0114		C.ar		1		UNL1		-0.1216
5		S		8.0421		0.6214		-0.5380		S.O2		1		UNL1		1.1691
6		N		8.5205		-1.0060		-0.6539		N.3		1		UNL1		-0.8149
7		O		8.8213		1.1901		0.5662		O.2		1		UNL1		-0.5414
8		O		8.0506		1.2000		-1.8849		O.2		1		UNL1		-0.5264
9		C		5.3139		0.5409		-0.9574		C.ar		1		UNL1		-0.1635
10		C		3.9885		0.4538		-0.5401		C.ar		1		UNL1		-0.1512
11		C		3.6925		0.3494		0.8265		C.ar		1		UNL1		0.2918
12		N		2.3626		0.2611		1.3007		N.am		1		UNL1		-0.7265
13		C		1.1865		0.2613		0.5996		C.2		1		UNL1		0.6211
14		O		1.0944		0.2926		-0.6202		O.2		1		UNL1		-0.4916
15		C		-0.0664		0.2707		1.4961		C.3		1		UNL1		-0.1412
16		O		-1.2133		-0.0882		0.7677		O.3		1		UNL1		-0.5157
17		C		-1.4088		-1.4067		0.4024		C.ar		1		UNL1		0.3215
18		C		-1.0452		-2.4870		1.2054		C.ar		1		UNL1		-0.1707
19		C		-1.3316		-3.7923		0.8001		C.ar		1		UNL1		-0.1396
20		C		-1.9883		-3.9992		-0.4075		C.ar		1		UNL1		-0.0587
21		CL		-2.3572		-5.6360		-0.9305		Cl		1		UNL1		-0.0171
22		C		-2.3536		-2.9203		-1.2135		C.ar		1		UNL1		-0.2120
23		C		-2.0692		-1.6110		-0.8240		C.ar		1		UNL1		0.1170
24		C		-2.4082		-0.4446		-1.7496		C.3		1		UNL1		0.0185
25		O		-1.2502		0.1378		-2.3144		O.3		1		UNL1		-0.6537
26		C		-3.3456		0.5907		-1.1102		C.ar		1		UNL1		0.1352
27		C		-3.1107		1.9522		-1.3124		C.ar		1		UNL1		-0.1781
28		C		-3.9931		2.8854		-0.7736		C.ar		1		UNL1		-0.0695
29		CL		-3.6866		4.6016		-1.0193		Cl		1		UNL1		-0.0215
30		C		-5.1162		2.5044		-0.0419		C.ar		1		UNL1		-0.1485
31		C		-5.3336		1.1398		0.1365		C.ar		1		UNL1		0.0763
32		BR		-6.8663		0.5754		1.1357		Br		1		UNL1		-0.1269
33		C		-4.4702		0.1813		-0.3844		C.ar		1		UNL1		-0.1915
34		H		3.9050		-0.6864		3.5331		H		1		UNL1		0.1662
35		H		3.8220		1.0850		3.6300		H		1		UNL1		0.1685
36		H		5.3592		0.2552		3.8502		H		1		UNL1		0.1867
37		H		6.8564		0.4321		2.0703		H		1		UNL1		0.1734
38		H		8.6311		-1.2626		-1.6333		H		1		UNL1		0.3556
39		H		9.3976		-1.1205		-0.1489		H		1		UNL1		0.3584
40		H		5.5495		0.6425		-2.0111		H		1		UNL1		0.1843
41		H		3.1837		0.4693		-1.2608		H		1		UNL1		0.2032
42		H		2.2711		0.2022		2.3058		H		1		UNL1		0.3444
43		H		0.0792		-0.3465		2.3927		H		1		UNL1		0.1537
44		H		-0.2452		1.2985		1.8313		H		1		UNL1		0.2058
45		H		-0.5529		-2.3321		2.1596		H		1		UNL1		0.1372
46		H		-1.0520		-4.6343		1.4239		H		1		UNL1		0.1598
47		H		-2.8513		-3.1021		-2.1608		H		1		UNL1		0.1637
48		H		-2.9515		-0.8682		-2.6045		H		1		UNL1		0.1611
49		H		-0.5775		0.2726		-1.6168		H		1		UNL1		0.4384
50		H		-2.2481		2.2643		-1.8879		H		1		UNL1		0.1732
51		H		-5.7942		3.2410		0.3706		H		1		UNL1		0.1708
52		H		-4.6705		-0.8719		-0.2188		H		1		UNL1		0.1537
@<TRIPOS>BOND
1		48		24		1
2		25		24		1
3		25		49		1
4		47		22		1
5		40		9		1
6		50		27		1
7		8		5		2
8		24		26		1
9		24		23		1
10		38		6		1
11		27		26		ar
12		27		28		ar
13		41		10		1
14		22		23		ar
15		22		20		ar
16		26		33		ar
17		29		28		1
18		9		10		ar
19		9		4		ar
20		21		20		1
21		23		17		ar
22		28		30		ar
23		6		5		1
24		6		39		1
25		14		13		2
26		10		11		ar
27		5		4		1
28		5		7		2
29		20		19		ar
30		33		52		1
31		33		31		ar
32		30		31		ar
33		30		51		1
34		4		3		ar
35		31		32		1
36		17		16		1
37		17		18		ar
38		13		12		1
39		13		15		1
40		16		15		1
41		19		18		ar
42		19		46		1
43		11		12		1
44		11		2		ar
45		18		45		1
46		12		42		1
47		3		2		ar
48		3		37		1
49		15		44		1
50		15		43		1
51		2		1		1
52		1		34		1
53		1		35		1
54		1		36		1

