@<TRIPOS>MOLECULE
MXD-2011-CMC-2225-9g
 38 40 0 0 0
SMALL
MULLIKEN_CHARGES
****
Gaussian 16 #p B3LYP/6-31G* opt
@<TRIPOS>ATOM
1		N		8.9415		-0.6965		-0.1145		N.1		1		UNL1		-0.4877
2		C		7.7994		-0.4698		-0.1063		C.1		1		UNL1		0.2256
3		C		6.3967		-0.1895		-0.0970		C.ar		1		UNL1		0.1298
4		C		5.4644		-1.2065		0.1682		C.ar		1		UNL1		-0.1537
5		C		4.0996		-0.9486		0.1799		C.ar		1		UNL1		-0.1609
6		C		3.6305		0.3538		-0.0779		C.ar		1		UNL1		0.3844
7		N		2.2866		0.7192		-0.0920		N.pl3		1		UNL1		-0.7682
8		C		1.1200		0.0089		0.1218		C.ar		1		UNL1		0.6911
9		N		1.1753		-1.3015		0.4093		N.ar		1		UNL1		-0.4792
10		C		-0.0131		-1.8845		0.6011		C.ar		1		UNL1		0.0687
11		C		-1.2227		-1.2093		0.5120		C.ar		1		UNL1		-0.2155
12		C		-1.1624		0.1627		0.2003		C.ar		1		UNL1		0.3206
13		C		-2.3951		0.9849		0.0948		C.2		1		UNL1		0.1601
14		N		-2.2377		2.2711		0.1157		N.2		1		UNL1		-0.2645
15		N		-3.3142		3.0834		0.0702		N.pl3		1		UNL1		-0.5420
16		C		-3.7267		0.3088		-0.0183		C.ar		1		UNL1		0.0207
17		C		-4.7113		0.4900		0.9684		C.ar		1		UNL1		-0.1616
18		C		-5.9566		-0.1287		0.8644		C.ar		1		UNL1		-0.2000
19		C		-6.2125		-0.9315		-0.2416		C.ar		1		UNL1		0.3861
20		F		-7.4136		-1.5321		-0.3492		F		1		UNL1		-0.2907
21		C		-5.2664		-1.1325		-1.2410		C.ar		1		UNL1		-0.2004
22		C		-4.0257		-0.5086		-1.1216		C.ar		1		UNL1		-0.1558
23		N		0.0170		0.7646		0.0005		N.ar		1		UNL1		-0.5461
24		C		4.5675		1.3746		-0.3436		C.ar		1		UNL1		-0.2058
25		C		5.9266		1.1110		-0.3537		C.ar		1		UNL1		-0.1409
26		H		5.8180		-2.2132		0.3678		H		1		UNL1		0.1558
27		H		3.3888		-1.7359		0.3852		H		1		UNL1		0.1878
28		H		2.0896		1.6921		-0.2913		H		1		UNL1		0.3477
29		H		0.0132		-2.9462		0.8413		H		1		UNL1		0.1512
30		H		-2.1622		-1.7170		0.6878		H		1		UNL1		0.1535
31		H		-4.1671		2.7191		-0.3558		H		1		UNL1		0.3205
32		H		-3.0580		4.0117		-0.2403		H		1		UNL1		0.3463
33		H		-4.4968		1.1187		1.8276		H		1		UNL1		0.1644
34		H		-6.7210		-0.0015		1.6239		H		1		UNL1		0.1570
35		H		-5.5076		-1.7646		-2.0892		H		1		UNL1		0.1568
36		H		-3.2767		-0.6591		-1.8940		H		1		UNL1		0.1539
37		H		4.2162		2.3843		-0.5434		H		1		UNL1		0.1356
38		H		6.6334		1.9082		-0.5600		H		1		UNL1		0.1555
@<TRIPOS>BOND
1		35		21		1
2		36		22		1
3		21		22		ar
4		21		19		ar
5		22		16		ar
6		38		25		1
7		37		24		1
8		31		15		1
9		25		24		ar
10		25		3		ar
11		20		19		1
12		24		6		ar
13		28		7		1
14		19		18		ar
15		32		15		1
16		1		2		3
17		2		3		1
18		3		4		ar
19		7		6		1
20		7		8		1
21		6		5		ar
22		16		13		1
23		16		17		ar
24		23		8		ar
25		23		12		ar
26		15		14		1
27		13		14		2
28		13		12		1
29		8		9		ar
30		4		5		ar
31		4		26		1
32		5		27		1
33		12		11		ar
34		9		10		ar
35		11		10		ar
36		11		30		1
37		10		29		1
38		18		17		ar
39		18		34		1
40		17		33		1

