@<TRIPOS>MOLECULE
MXD-2011-CMC-2225-9t
 44 47 0 0 0
SMALL
MULLIKEN_CHARGES
****
Gaussian 16 #p B3LYP/6-31G* opt
@<TRIPOS>ATOM
1		N		-9.5567		-1.1588		-0.1050		N.1		1		UNL1		-0.4885
2		C		-8.4334		-0.8524		-0.1181		C.1		1		UNL1		0.2252
3		C		-7.0539		-0.4745		-0.1355		C.ar		1		UNL1		0.1294
4		C		-6.6602		0.7677		-0.6649		C.ar		1		UNL1		-0.1411
5		C		-5.3232		1.1265		-0.6789		C.ar		1		UNL1		-0.2059
6		C		-4.3325		0.2621		-0.1668		C.ar		1		UNL1		0.3847
7		N		-3.0166		0.7127		-0.2274		N.pl3		1		UNL1		-0.7684
8		C		-1.8153		0.1554		0.1718		C.ar		1		UNL1		0.6907
9		N		-1.7968		-1.0583		0.7457		N.ar		1		UNL1		-0.4801
10		C		-0.5812		-1.4946		1.0945		C.ar		1		UNL1		0.0680
11		C		0.5839		-0.7694		0.8871		C.ar		1		UNL1		-0.2152
12		C		0.4468		0.4907		0.2729		C.ar		1		UNL1		0.3248
13		C		1.6255		1.3555		0.0152		C.2		1		UNL1		0.1606
14		N		1.3865		2.5860		-0.3149		N.2		1		UNL1		-0.2666
15		N		2.4170		3.4329		-0.5207		N.pl3		1		UNL1		-0.5415
16		C		3.0074		0.7955		0.1599		C.ar		1		UNL1		0.0147
17		C		3.8748		1.2934		1.1768		C.ar		1		UNL1		-0.1613
18		C		5.1517		0.8016		1.3159		C.ar		1		UNL1		-0.1963
19		C		5.6472		-0.2100		0.4496		C.ar		1		UNL1		0.1389
20		C		6.9608		-0.7377		0.5663		C.ar		1		UNL1		-0.1915
21		C		7.4049		-1.7165		-0.2940		C.ar		1		UNL1		-0.1326
22		C		6.5548		-2.2140		-1.3128		C.ar		1		UNL1		-0.1358
23		C		5.2761		-1.7238		-1.4518		C.ar		1		UNL1		-0.1879
24		C		4.7868		-0.7136		-0.5797		C.ar		1		UNL1		0.1356
25		C		3.4730		-0.1875		-0.6954		C.ar		1		UNL1		-0.2337
26		N		-0.7610		0.9445		-0.0868		N.ar		1		UNL1		-0.5481
27		C		-4.7252		-0.9818		0.3641		C.ar		1		UNL1		-0.1611
28		C		-6.0682		-1.3357		0.3751		C.ar		1		UNL1		-0.1538
29		H		-7.4089		1.4451		-1.0630		H		1		UNL1		0.1549
30		H		-5.0313		2.0898		-1.0907		H		1		UNL1		0.1352
31		H		-2.8752		1.6284		-0.6354		H		1		UNL1		0.3475
32		H		-0.5473		-2.4752		1.5665		H		1		UNL1		0.1502
33		H		1.5472		-1.1555		1.1937		H		1		UNL1		0.1551
34		H		3.3145		3.0323		-0.7945		H		1		UNL1		0.3233
35		H		2.1310		4.2300		-1.0742		H		1		UNL1		0.3454
36		H		3.5103		2.0670		1.8464		H		1		UNL1		0.1532
37		H		5.8007		1.1833		2.1006		H		1		UNL1		0.1388
38		H		7.6113		-0.3547		1.3491		H		1		UNL1		0.1359
39		H		8.4117		-2.1127		-0.1948		H		1		UNL1		0.1372
40		H		6.9178		-2.9864		-1.9850		H		1		UNL1		0.1374
41		H		4.6212		-2.1041		-2.2321		H		1		UNL1		0.1368
42		H		2.8229		-0.5758		-1.4764		H		1		UNL1		0.1431
43		H		-3.9729		-1.6492		0.7591		H		1		UNL1		0.1878
44		H		-6.3626		-2.2964		0.7861		H		1		UNL1		0.1552
@<TRIPOS>BOND
1		41		23		1
2		40		22		1
3		42		25		1
4		23		22		ar
5		23		24		ar
6		22		21		ar
7		30		5		1
8		35		15		1
9		29		4		1
10		34		15		1
11		25		24		ar
12		25		16		ar
13		5		4		ar
14		5		6		ar
15		4		3		ar
16		31		7		1
17		24		19		ar
18		15		14		1
19		14		13		2
20		21		39		1
21		21		20		ar
22		7		6		1
23		7		8		1
24		6		27		ar
25		3		2		1
26		3		28		ar
27		2		1		3
28		26		8		ar
29		26		12		ar
30		13		16		1
31		13		12		1
32		16		17		ar
33		8		9		ar
34		12		11		ar
35		27		28		ar
36		27		43		1
37		28		44		1
38		19		20		ar
39		19		18		ar
40		20		38		1
41		9		10		ar
42		11		10		ar
43		11		33		1
44		10		32		1
45		17		18		ar
46		17		36		1
47		18		37		1

