@<TRIPOS>MOLECULE
MXD-2011-CMC-2225-9r
 38 40 0 0 0
SMALL
MULLIKEN_CHARGES
****
Gaussian 16 #p B3LYP/6-31G* opt
@<TRIPOS>ATOM
1		N		-9.1655		-0.8436		0.1362		N.1		1		UNL1		-0.4871
2		C		-8.0293		-0.5890		0.1339		C.1		1		UNL1		0.2260
3		C		-6.6337		-0.2744		0.1320		C.ar		1		UNL1		0.1301
4		C		-6.1857		0.9869		0.5637		C.ar		1		UNL1		-0.1408
5		C		-4.8335		1.2843		0.5593		C.ar		1		UNL1		-0.2057
6		C		-3.8822		0.3371		0.1256		C.ar		1		UNL1		0.3841
7		N		-2.5464		0.7318		0.1601		N.pl3		1		UNL1		-0.7681
8		C		-1.3714		0.0911		-0.1838		C.ar		1		UNL1		0.6920
9		N		-1.4052		-1.1652		-0.6572		N.ar		1		UNL1		-0.4784
10		C		-0.2108		-1.6832		-0.9619		C.ar		1		UNL1		0.0696
11		C		0.9859		-0.9964		-0.8068		C.ar		1		UNL1		-0.2147
12		C		0.9036		0.3136		-0.2974		C.ar		1		UNL1		0.3200
13		C		2.1194		1.1461		-0.1062		C.2		1		UNL1		0.1618
14		N		1.9334		2.4192		0.0472		N.2		1		UNL1		-0.2620
15		N		2.9872		3.2492		0.1805		N.pl3		1		UNL1		-0.5414
16		C		3.4680		0.4946		-0.1093		C.ar		1		UNL1		0.0229
17		C		4.4349		0.8426		-1.0662		C.ar		1		UNL1		-0.1623
18		C		5.6956		0.2422		-1.0627		C.ar		1		UNL1		-0.2054
19		C		5.9961		-0.7084		-0.0974		C.ar		1		UNL1		0.3240
20		F		7.1993		-1.3011		-0.0704		F		1		UNL1		-0.2758
21		C		5.0454		-1.0603		0.8617		C.ar		1		UNL1		0.3237
22		F		5.3645		-1.9800		1.7864		F		1		UNL1		-0.2783
23		C		3.7917		-0.4685		0.8624		C.ar		1		UNL1		-0.2329
24		N		-0.2818		0.8496		0.0181		N.ar		1		UNL1		-0.5457
25		C		-4.3290		-0.9260		-0.3070		C.ar		1		UNL1		-0.1607
26		C		-5.6871		-1.2180		-0.3002		C.ar		1		UNL1		-0.1536
27		H		-6.9040		1.7275		0.9005		H		1		UNL1		0.1560
28		H		-4.4992		2.2632		0.8951		H		1		UNL1		0.1358
29		H		-2.3661		1.6703		0.4941		H		1		UNL1		0.3479
30		H		-0.2204		-2.6993		-1.3531		H		1		UNL1		0.1527
31		H		1.9304		-1.4489		-1.0801		H		1		UNL1		0.1522
32		H		2.7137		4.1217		0.6136		H		1		UNL1		0.3482
33		H		3.8616		2.8598		0.5343		H		1		UNL1		0.3209
34		H		4.1973		1.5840		-1.8226		H		1		UNL1		0.1668
35		H		6.4489		0.4967		-1.8012		H		1		UNL1		0.1652
36		H		3.0748		-0.7660		1.6209		H		1		UNL1		0.1687
37		H		-3.6072		-1.6569		-0.6415		H		1		UNL1		0.1880
38		H		-6.0237		-2.1941		-0.6353		H		1		UNL1		0.1563
@<TRIPOS>BOND
1		34		17		1
2		35		18		1
3		30		10		1
4		31		11		1
5		17		18		ar
6		17		16		ar
7		18		19		ar
8		10		11		ar
9		10		9		ar
10		11		12		ar
11		9		8		ar
12		37		25		1
13		38		26		1
14		25		26		ar
15		25		6		ar
16		26		3		ar
17		12		13		1
18		12		24		ar
19		8		24		ar
20		8		7		1
21		16		13		1
22		16		23		ar
23		13		14		2
24		19		20		1
25		19		21		ar
26		14		15		1
27		6		7		1
28		6		5		ar
29		3		2		1
30		3		4		ar
31		2		1		3
32		7		29		1
33		15		33		1
34		15		32		1
35		5		4		ar
36		5		28		1
37		4		27		1
38		21		23		ar
39		21		22		1
40		23		36		1

