@<TRIPOS>MOLECULE
MXD-2011-BMC-4704-7j
 58 60 0 0 0
SMALL
MULLIKEN_CHARGES
****
Gaussian 16 #p B3LYP/6-31G* opt
@<TRIPOS>ATOM
1		C		6.7777		-3.8011		1.1071		C.3		1		UNL1		-0.5319
2		C		5.7870		-2.8351		0.5012		C.ar		1		UNL1		0.1977
3		C		5.4512		-1.6398		1.1399		C.ar		1		UNL1		-0.1998
4		C		4.5105		-0.7768		0.5798		C.ar		1		UNL1		-0.1660
5		C		3.8725		-1.0722		-0.6278		C.ar		1		UNL1		0.1139
6		C		2.8857		-0.1027		-1.2664		C.3		1		UNL1		-0.0307
7		O		1.6445		-0.7984		-1.5201		O.3		1		UNL1		-0.6192
8		C		2.6014		1.1916		-0.5153		C.ar		1		UNL1		0.0862
9		C		2.9903		2.4090		-1.0744		C.ar		1		UNL1		-0.2090
10		C		2.6679		3.6187		-0.4576		C.ar		1		UNL1		-0.0606
11		CL		3.1816		5.1306		-1.1932		Cl		1		UNL1		-0.0195
12		C		1.9301		3.6346		0.7190		C.ar		1		UNL1		-0.1433
13		C		1.5291		2.4260		1.2945		C.ar		1		UNL1		-0.1854
14		C		1.8730		1.2115		0.6954		C.ar		1		UNL1		0.3384
15		O		1.5486		-0.0175		1.2118		O.3		1		UNL1		-0.5243
16		C		0.9021		-0.1069		2.4720		C.3		1		UNL1		-0.1456
17		C		-0.6239		0.0485		2.4095		C.2		1		UNL1		0.5841
18		O		-1.2457		0.3303		3.4231		O.2		1		UNL1		-0.4946
19		N		-1.1533		-0.2180		1.1717		N.am		1		UNL1		-0.7350
20		C		-2.5078		-0.2489		0.7854		C.ar		1		UNL1		0.2976
21		C		-3.5456		-0.0551		1.7113		C.ar		1		UNL1		-0.1569
22		C		-4.8725		-0.1048		1.2940		C.ar		1		UNL1		-0.1650
23		C		-5.1620		-0.3534		-0.0448		C.ar		1		UNL1		-0.1255
24		S		-6.8613		-0.4268		-0.5911		S.O2		1		UNL1		1.1641
25		N		-7.2039		-2.0951		-0.5937		N.3		1		UNL1		-0.8142
26		O		-7.6853		0.2161		0.4383		O.2		1		UNL1		-0.5287
27		O		-6.9126		-0.0168		-1.9985		O.2		1		UNL1		-0.5455
28		C		-4.1366		-0.5331		-0.9737		C.ar		1		UNL1		-0.2114
29		C		-2.8010		-0.4826		-0.5812		C.ar		1		UNL1		0.1518
30		C		-1.7066		-0.6521		-1.6081		C.3		1		UNL1		-0.5719
31		C		4.2230		-2.2632		-1.3062		C.ar		1		UNL1		0.1469
32		C		3.6356		-2.6392		-2.6484		C.3		1		UNL1		-0.5219
33		C		5.1654		-3.1150		-0.7217		C.ar		1		UNL1		-0.2499
34		H		7.3841		-4.2908		0.3371		H		1		UNL1		0.1585
35		H		7.4562		-3.2956		1.8022		H		1		UNL1		0.1568
36		H		6.2669		-4.5949		1.6687		H		1		UNL1		0.1661
37		H		5.9284		-1.3752		2.0807		H		1		UNL1		0.1202
38		H		4.2828		0.1521		1.0913		H		1		UNL1		0.1284
39		H		3.3130		0.1907		-2.2385		H		1		UNL1		0.1394
40		H		1.1882		-0.3052		-2.2202		H		1		UNL1		0.3950
41		H		3.5504		2.4163		-2.0048		H		1		UNL1		0.1577
42		H		1.6609		4.5756		1.1862		H		1		UNL1		0.1648
43		H		0.9392		2.4532		2.2035		H		1		UNL1		0.1655
44		H		1.2947		0.6089		3.1999		H		1		UNL1		0.1826
45		H		1.1240		-1.1149		2.8376		H		1		UNL1		0.2023
46		H		-0.4620		-0.4316		0.4598		H		1		UNL1		0.3774
47		H		-3.3006		0.1398		2.7454		H		1		UNL1		0.1979
48		H		-5.6763		0.0624		2.0026		H		1		UNL1		0.1782
49		H		-7.7948		-2.3247		0.2035		H		1		UNL1		0.3515
50		H		-7.6785		-2.3181		-1.4671		H		1		UNL1		0.3558
51		H		-4.3839		-0.6957		-2.0179		H		1		UNL1		0.1679
52		H		-1.0755		0.2449		-1.6707		H		1		UNL1		0.1597
53		H		-2.1372		-0.8220		-2.5985		H		1		UNL1		0.1736
54		H		-1.0455		-1.4996		-1.3854		H		1		UNL1		0.1859
55		H		2.5733		-2.8853		-2.5668		H		1		UNL1		0.1806
56		H		4.1632		-3.4998		-3.0709		H		1		UNL1		0.1494
57		H		3.7134		-1.8169		-3.3721		H		1		UNL1		0.1441
58		H		5.4324		-4.0296		-1.2486		H		1		UNL1		0.1155
@<TRIPOS>BOND
1		57		32		1
2		56		32		1
3		32		55		1
4		32		31		1
5		53		30		1
6		39		6		1
7		40		7		1
8		51		28		1
9		41		9		1
10		27		24		2
11		52		30		1
12		30		54		1
13		30		29		1
14		7		6		1
15		50		25		1
16		31		33		ar
17		31		5		ar
18		6		5		1
19		6		8		1
20		58		33		1
21		11		10		1
22		9		8		ar
23		9		10		ar
24		28		29		ar
25		28		23		ar
26		33		2		ar
27		5		4		ar
28		25		24		1
29		25		49		1
30		24		23		1
31		24		26		2
32		29		20		ar
33		8		14		ar
34		10		12		ar
35		23		22		ar
36		34		1		1
37		46		19		1
38		2		1		1
39		2		3		ar
40		4		38		1
41		4		3		ar
42		14		15		1
43		14		13		ar
44		12		42		1
45		12		13		ar
46		20		19		1
47		20		21		ar
48		1		36		1
49		1		35		1
50		3		37		1
51		19		17		1
52		15		16		1
53		22		21		ar
54		22		48		1
55		13		43		1
56		21		47		1
57		17		16		1
58		17		18		2
59		16		45		1
60		16		44		1

