@<TRIPOS>MOLECULE
SGF-2005-APALS-457-HEPT
 38 39 0 0 0
SMALL
MULLIKEN_CHARGES
****
Gaussian 16 #p B3LYP/6-31G* opt
@<TRIPOS>ATOM
1		C		-3.6595		-1.7186		-0.3503		C.3		1		UNL1		-0.5110
2		C		-2.8131		-0.5033		-0.0892		C.ar		1		UNL1		0.0539
3		C		-1.4763		-0.3914		-0.3291		C.ar		1		UNL1		-0.0179
4		S		-0.6032		-1.6555		-1.2559		S.3		1		UNL1		0.1511
5		C		0.8905		-1.9277		-0.2990		C.ar		1		UNL1		-0.0755
6		C		0.8740		-2.0165		1.0989		C.ar		1		UNL1		-0.1372
7		C		2.0535		-2.2888		1.7907		C.ar		1		UNL1		-0.1251
8		C		3.2485		-2.5002		1.0971		C.ar		1		UNL1		-0.1330
9		C		3.2596		-2.4298		-0.2963		C.ar		1		UNL1		-0.1239
10		C		2.0875		-2.1335		-0.9954		C.ar		1		UNL1		-0.1608
11		N		-0.7321		0.7271		0.0896		N.ar		1		UNL1		-0.4124
12		C		-0.1330		1.5874		-0.9489		C.3		1		UNL1		0.0873
13		O		0.8997		2.3775		-0.4300		O.3		1		UNL1		-0.4612
14		C		2.0945		1.6657		-0.1249		C.3		1		UNL1		-0.0499
15		C		3.1287		2.6404		0.4165		C.3		1		UNL1		-0.0426
16		O		3.5170		3.6471		-0.5026		O.3		1		UNL1		-0.6016
17		C		-1.3975		1.4595		1.1590		C.ar		1		UNL1		-0.0310
18		N		-2.7691		1.7535		0.7834		N.ar		1		UNL1		-0.6084
19		C		-3.5654		0.7071		0.3680		C.ar		1		UNL1		0.5684
20		O		-4.7891		0.7771		0.3326		O.2		1		UNL1		-0.5132
21		H		-3.0502		-2.6167		-0.4714		H		1		UNL1		0.1684
22		H		-4.2634		-1.5858		-1.2563		H		1		UNL1		0.1748
23		H		-4.3685		-1.8668		0.4703		H		1		UNL1		0.1695
24		H		-0.0573		-1.8741		1.6385		H		1		UNL1		0.1469
25		H		2.0354		-2.3509		2.8756		H		1		UNL1		0.1388
26		H		4.1627		-2.7222		1.6404		H		1		UNL1		0.1373
27		H		4.1834		-2.5950		-0.8445		H		1		UNL1		0.1377
28		H		2.1008		-2.0618		-2.0794		H		1		UNL1		0.1463
29		H		-0.8753		2.2929		-1.3427		H		1		UNL1		0.1634
30		H		0.2128		0.9338		-1.7581		H		1		UNL1		0.1583
31		H		2.4754		1.1696		-1.0348		H		1		UNL1		0.1159
32		H		1.9022		0.8793		0.6175		H		1		UNL1		0.1530
33		H		3.9935		2.0554		0.7736		H		1		UNL1		0.1224
34		H		2.7101		3.1716		1.2771		H		1		UNL1		0.1566
35		H		3.8834		3.2084		-1.2862		H		1		UNL1		0.3858
36		H		-0.8493		2.3863		1.3347		H		1		UNL1		0.1807
37		H		-1.3519		0.8385		2.0663		H		1		UNL1		0.1588
38		H		-3.2550		2.5480		1.1807		H		1		UNL1		0.3294
@<TRIPOS>BOND
1		28		10		1
2		30		12		1
3		29		12		1
4		35		16		1
5		22		1		1
6		4		3		1
7		4		5		1
8		31		14		1
9		10		5		ar
10		10		9		ar
11		12		13		1
12		12		11		1
13		27		9		1
14		16		15		1
15		21		1		1
16		13		14		1
17		1		2		1
18		1		23		1
19		3		2		ar
20		3		11		ar
21		5		6		ar
22		9		8		ar
23		14		15		1
24		14		32		1
25		2		19		ar
26		11		17		ar
27		20		19		2
28		19		18		ar
29		15		33		1
30		15		34		1
31		18		17		ar
32		18		38		1
33		8		26		1
34		8		7		ar
35		6		24		1
36		6		7		ar
37		17		36		1
38		17		37		1
39		7		25		1

