@<TRIPOS>MOLECULE
SGF-2005-CPB-886-11B
 47 49 0 0 0
SMALL
MULLIKEN_CHARGES
****
Gaussian 16 #p B3LYP/6-31G* opt
@<TRIPOS>ATOM
1		C		1.4224		4.2969		1.5852		C.3		1		UNL1		-0.4649
2		C		1.9345		3.8023		0.2344		C.3		1		UNL1		-0.0230
3		O		1.7711		2.3977		0.0476		O.3		1		UNL1		-0.4557
4		C		2.6945		1.5944		0.7329		C.3		1		UNL1		0.0847
5		N		2.6477		0.2526		0.1606		N.ar		1		UNL1		-0.5273
6		C		1.6501		-0.6837		0.4763		C.ar		1		UNL1		0.0515
7		S		0.5017		-0.1515		1.7685		S.3		1		UNL1		0.1916
8		C		-1.1590		-0.3358		1.1064		C.ar		1		UNL1		-0.1209
9		C		-2.0380		-1.1309		1.8943		C.ar		1		UNL1		-0.1738
10		C		-3.3667		-1.2543		1.5723		C.ar		1		UNL1		-0.1575
11		C		-3.9098		-0.5985		0.4382		C.ar		1		UNL1		0.1121
12		C		-5.2756		-0.7355		0.0753		C.ar		1		UNL1		-0.1896
13		C		-5.7793		-0.0863		-1.0275		C.ar		1		UNL1		-0.1269
14		C		-4.9352		0.7331		-1.8150		C.ar		1		UNL1		-0.1335
15		C		-3.6068		0.8922		-1.4935		C.ar		1		UNL1		-0.1772
16		C		-3.0566		0.2293		-0.3615		C.ar		1		UNL1		0.1524
17		C		-1.6888		0.3390		0.0222		C.ar		1		UNL1		0.1988
18		N		-0.8496		1.2241		-0.8121		N.pl3		1		UNL1		0.3399
19		O		-1.0638		2.4293		-0.7191		O.2		1		UNL1		-0.3599
20		O		-0.0503		0.6907		-1.5718		O.2		1		UNL1		-0.3530
21		C		1.6120		-1.9264		-0.0785		C.ar		1		UNL1		0.0577
22		C		0.6853		-3.0554		0.3001		C.3		1		UNL1		-0.3320
23		C		1.3527		-4.0609		1.2569		C.3		1		UNL1		-0.4483
24		C		2.5874		-2.2570		-1.1279		C.ar		1		UNL1		0.6170
25		O		2.6462		-3.3291		-1.7152		O.2		1		UNL1		-0.5082
26		N		3.4915		-1.2387		-1.4300		N.ar		1		UNL1		-0.7042
27		C		3.5951		0.0073		-0.8488		C.ar		1		UNL1		0.8071
28		O		4.4518		0.8107		-1.1744		O.2		1		UNL1		-0.5098
29		H		0.3749		4.0082		1.7179		H		1		UNL1		0.1693
30		H		2.0028		3.8899		2.4213		H		1		UNL1		0.1445
31		H		1.4901		5.3900		1.6360		H		1		UNL1		0.1465
32		H		1.3567		4.2541		-0.5761		H		1		UNL1		0.1650
33		H		2.9922		4.0738		0.0912		H		1		UNL1		0.1319
34		H		2.4736		1.5289		1.8032		H		1		UNL1		0.1552
35		H		3.7171		1.9549		0.5911		H		1		UNL1		0.1822
36		H		-1.6304		-1.6466		2.7577		H		1		UNL1		0.1661
37		H		-4.0180		-1.8725		2.1844		H		1		UNL1		0.1490
38		H		-5.9149		-1.3667		0.6871		H		1		UNL1		0.1434
39		H		-6.8253		-0.1988		-1.2976		H		1		UNL1		0.1449
40		H		-5.3409		1.2440		-2.6834		H		1		UNL1		0.1477
41		H		-2.9786		1.5326		-2.1022		H		1		UNL1		0.1660
42		H		-0.2342		-2.6770		0.7464		H		1		UNL1		0.1502
43		H		0.4075		-3.5779		-0.6209		H		1		UNL1		0.1746
44		H		2.2510		-4.4877		0.8012		H		1		UNL1		0.1715
45		H		0.6654		-4.8838		1.4846		H		1		UNL1		0.1438
46		H		1.6357		-3.5815		2.2009		H		1		UNL1		0.1454
47		H		4.1709		-1.4367		-2.1559		H		1		UNL1		0.3554
@<TRIPOS>BOND
1		40		14		1
2		47		26		1
3		41		15		1
4		14		15		ar
5		14		13		ar
6		25		24		2
7		20		18		2
8		15		16		ar
9		26		24		ar
10		26		27		ar
11		39		13		1
12		28		27		2
13		24		21		ar
14		13		12		ar
15		27		5		ar
16		18		19		2
17		18		17		1
18		43		22		1
19		32		2		1
20		16		17		ar
21		16		11		ar
22		21		22		1
23		21		6		ar
24		17		8		ar
25		3		2		1
26		3		4		1
27		12		11		ar
28		12		38		1
29		33		2		1
30		5		6		ar
31		5		4		1
32		2		1		1
33		22		42		1
34		22		23		1
35		11		10		ar
36		6		7		1
37		35		4		1
38		4		34		1
39		44		23		1
40		8		7		1
41		8		9		ar
42		23		45		1
43		23		46		1
44		10		9		ar
45		10		37		1
46		1		31		1
47		1		29		1
48		1		30		1
49		9		36		1

