@<TRIPOS>MOLECULE
SGF-2005-CPB-886-8F
 55 58 0 0 0
SMALL
MULLIKEN_CHARGES
****
Gaussian 16 #p B3LYP/6-31G* opt
@<TRIPOS>ATOM
1		C		4.9784		-2.3847		0.4125		C.3		1		UNL1		-0.4550
2		C		3.5813		-1.9461		0.8972		C.3		1		UNL1		-0.1444
3		C		3.5028		-1.9382		2.4382		C.3		1		UNL1		-0.4645
4		C		3.1688		-0.6112		0.2870		C.ar		1		UNL1		0.0436
5		C		2.1548		-0.4425		-0.6181		C.ar		1		UNL1		0.0169
6		S		1.3367		-1.8916		-1.3232		S.3		1		UNL1		0.1586
7		C		-0.2547		-1.9744		-0.4896		C.ar		1		UNL1		-0.0979
8		C		-0.3752		-1.7915		0.9140		C.ar		1		UNL1		-0.1546
9		C		-1.5990		-1.9405		1.5227		C.ar		1		UNL1		-0.1832
10		C		-2.7554		-2.3039		0.7796		C.ar		1		UNL1		0.1314
11		C		-4.0281		-2.4722		1.3861		C.ar		1		UNL1		-0.1906
12		C		-5.1248		-2.8275		0.6325		C.ar		1		UNL1		-0.1330
13		C		-4.9976		-3.0303		-0.7636		C.ar		1		UNL1		-0.1336
14		C		-3.7773		-2.8742		-1.3819		C.ar		1		UNL1		-0.1879
15		C		-2.6268		-2.5090		-0.6325		C.ar		1		UNL1		0.1446
16		C		-1.3574		-2.3228		-1.2435		C.ar		1		UNL1		-0.2294
17		N		1.8242		0.8135		-1.1609		N.ar		1		UNL1		-0.5270
18		C		0.6940		1.0829		-2.0873		C.3		1		UNL1		0.0953
19		O		-0.2415		1.9768		-1.5676		O.3		1		UNL1		-0.4507
20		C		-1.0637		1.4864		-0.5120		C.3		1		UNL1		-0.0994
21		C		-1.8534		2.6339		0.0725		C.ar		1		UNL1		0.1201
22		C		-1.3144		3.9255		0.1149		C.ar		1		UNL1		-0.1703
23		C		-2.0348		4.9669		0.7006		C.ar		1		UNL1		-0.1343
24		C		-3.2945		4.7298		1.2550		C.ar		1		UNL1		-0.1269
25		C		-3.8352		3.4436		1.2154		C.ar		1		UNL1		-0.1309
26		C		-3.1193		2.4028		0.6220		C.ar		1		UNL1		-0.1841
27		C		2.6147		1.9476		-0.9141		C.ar		1		UNL1		0.7973
28		O		2.4457		3.0157		-1.4734		O.2		1		UNL1		-0.4996
29		N		3.6066		1.7526		0.0270		N.ar		1		UNL1		-0.6987
30		C		3.9665		0.5706		0.6712		C.ar		1		UNL1		0.6097
31		O		4.9005		0.5761		1.4629		O.2		1		UNL1		-0.5021
32		H		5.2224		-3.3703		0.8259		H		1		UNL1		0.1430
33		H		5.7468		-1.6776		0.7350		H		1		UNL1		0.1797
34		H		5.0104		-2.4618		-0.6804		H		1		UNL1		0.1413
35		H		2.8673		-2.6922		0.5410		H		1		UNL1		0.1614
36		H		4.2272		-1.2450		2.8695		H		1		UNL1		0.1890
37		H		2.5032		-1.6525		2.7882		H		1		UNL1		0.1370
38		H		3.7121		-2.9448		2.8185		H		1		UNL1		0.1424
39		H		0.4991		-1.5267		1.4993		H		1		UNL1		0.1588
40		H		-1.6912		-1.7906		2.5957		H		1		UNL1		0.1447
41		H		-4.1221		-2.3171		2.4581		H		1		UNL1		0.1388
42		H		-6.0937		-2.9543		1.1072		H		1		UNL1		0.1391
43		H		-5.8704		-3.3104		-1.3468		H		1		UNL1		0.1395
44		H		-3.6783		-3.0285		-2.4536		H		1		UNL1		0.1384
45		H		-1.2672		-2.4573		-2.3185		H		1		UNL1		0.1501
46		H		0.2532		0.1209		-2.3511		H		1		UNL1		0.1680
47		H		1.1043		1.5711		-2.9707		H		1		UNL1		0.1877
48		H		-0.4353		1.0298		0.2675		H		1		UNL1		0.1474
49		H		-1.7368		0.7002		-0.8842		H		1		UNL1		0.1441
50		H		-0.3384		4.1059		-0.3248		H		1		UNL1		0.1654
51		H		-1.6105		5.9674		0.7231		H		1		UNL1		0.1307
52		H		-3.8533		5.5432		1.7106		H		1		UNL1		0.1264
53		H		-4.8185		3.2512		1.6370		H		1		UNL1		0.1256
54		H		-3.5483		1.4034		0.5844		H		1		UNL1		0.1259
55		H		4.1782		2.5654		0.2300		H		1		UNL1		0.3560
@<TRIPOS>BOND
1		47		18		1
2		44		14		1
3		46		18		1
4		45		16		1
5		18		19		1
6		18		17		1
7		19		20		1
8		28		27		2
9		14		13		ar
10		14		15		ar
11		43		13		1
12		6		5		1
13		6		7		1
14		16		15		ar
15		16		7		ar
16		17		27		ar
17		17		5		ar
18		27		29		ar
19		49		20		1
20		13		12		ar
21		34		1		1
22		15		10		ar
23		5		4		ar
24		20		21		1
25		20		48		1
26		7		8		ar
27		50		22		1
28		29		55		1
29		29		30		ar
30		21		22		ar
31		21		26		ar
32		22		23		ar
33		4		30		ar
34		4		2		1
35		1		33		1
36		1		32		1
37		1		2		1
38		35		2		1
39		54		26		1
40		26		25		ar
41		12		42		1
42		12		11		ar
43		30		31		2
44		23		51		1
45		23		24		ar
46		10		11		ar
47		10		9		ar
48		2		3		1
49		8		39		1
50		8		9		ar
51		25		24		ar
52		25		53		1
53		24		52		1
54		11		41		1
55		9		40		1
56		3		37		1
57		3		38		1
58		3		36		1

