@<TRIPOS>MOLECULE
SGF-2005-APALS-457-5A
 50 53 0 0 0
SMALL
MULLIKEN_CHARGES
****
Gaussian 16 #p B3LYP/6-31G* opt
@<TRIPOS>ATOM
1		C		3.0160		-2.6508		-1.4234		C.3		1		UNL1		-0.4522
2		C		2.2274		-2.8133		-0.1099		C.3		1		UNL1		-0.3278
3		C		1.1660		-1.7631		0.0862		C.ar		1		UNL1		0.0974
4		C		1.2036		-0.7139		0.9743		C.ar		1		UNL1		-0.0276
5		S		2.5640		-0.4076		2.1303		S.3		1		UNL1		0.1486
6		C		4.0078		-0.1417		1.0907		C.ar		1		UNL1		-0.1744
7		C		5.0855		-0.9891		1.2653		C.ar		1		UNL1		-0.1517
8		C		6.2922		-0.7897		0.5556		C.ar		1		UNL1		-0.1264
9		C		6.4024		0.2488		-0.3379		C.ar		1		UNL1		-0.1903
10		C		5.3246		1.1524		-0.5388		C.ar		1		UNL1		0.1474
11		C		5.4369		2.2412		-1.4446		C.ar		1		UNL1		-0.1929
12		C		4.4037		3.1342		-1.6107		C.ar		1		UNL1		-0.1302
13		C		3.2113		2.9778		-0.8663		C.ar		1		UNL1		-0.1404
14		C		3.0628		1.9291		0.0150		C.ar		1		UNL1		-0.2070
15		C		4.1037		0.9787		0.1991		C.ar		1		UNL1		0.1221
16		N		0.1817		0.1938		1.1428		N.ar		1		UNL1		-0.4665
17		C		-0.8941		0.0241		0.4356		C.ar		1		UNL1		0.3144
18		S		-2.1949		1.2070		0.7670		S.3		1		UNL1		0.2119
19		C		-3.2224		1.1749		-0.7666		C.3		1		UNL1		-0.5682
20		C		-4.2250		0.0251		-0.7782		C.2		1		UNL1		0.4302
21		O		-3.8421		-1.0746		-1.1719		O.2		1		UNL1		-0.4658
22		C		-5.6220		0.2264		-0.3115		C.ar		1		UNL1		0.0829
23		C		-6.5133		-0.8549		-0.4346		C.ar		1		UNL1		-0.1497
24		C		-7.8327		-0.7308		-0.0154		C.ar		1		UNL1		-0.1304
25		C		-8.2788		0.4720		0.5417		C.ar		1		UNL1		-0.1144
26		C		-7.4010		1.5491		0.6769		C.ar		1		UNL1		-0.1330
27		C		-6.0798		1.4303		0.2494		C.ar		1		UNL1		-0.1743
28		N		-1.0513		-0.9703		-0.4720		N.ar		1		UNL1		-0.6635
29		C		-0.0384		-1.9258		-0.7292		C.ar		1		UNL1		0.5786
30		O		-0.2375		-2.8093		-1.5531		O.2		1		UNL1		-0.5142
31		H		3.7573		-3.4523		-1.5194		H		1		UNL1		0.1397
32		H		2.3401		-2.7077		-2.2812		H		1		UNL1		0.1714
33		H		3.5452		-1.6935		-1.4549		H		1		UNL1		0.1551
34		H		1.7257		-3.7884		-0.1295		H		1		UNL1		0.1634
35		H		2.9094		-2.8076		0.7436		H		1		UNL1		0.1563
36		H		4.9980		-1.8263		1.9510		H		1		UNL1		0.1486
37		H		7.1220		-1.4734		0.7114		H		1		UNL1		0.1356
38		H		7.3208		0.3993		-0.9003		H		1		UNL1		0.1340
39		H		6.3633		2.3581		-2.0022		H		1		UNL1		0.1308
40		H		4.5040		3.9641		-2.3050		H		1		UNL1		0.1306
41		H		2.4047		3.6962		-0.9870		H		1		UNL1		0.1312
42		H		2.1463		1.8285		0.5862		H		1		UNL1		0.1842
43		H		-3.6926		2.1586		-0.8084		H		1		UNL1		0.2054
44		H		-2.5669		1.0766		-1.6354		H		1		UNL1		0.2212
45		H		-6.1454		-1.7809		-0.8634		H		1		UNL1		0.1761
46		H		-8.5150		-1.5696		-0.1184		H		1		UNL1		0.1494
47		H		-9.3096		0.5685		0.8718		H		1		UNL1		0.1486
48		H		-7.7442		2.4815		1.1154		H		1		UNL1		0.1472
49		H		-5.4121		2.2767		0.3725		H		1		UNL1		0.1425
50		H		-1.9514		-1.1385		-0.9366		H		1		UNL1		0.3963
@<TRIPOS>BOND
1		40		12		1
2		32		1		1
3		39		11		1
4		44		19		1
5		12		11		ar
6		12		13		ar
7		30		29		2
8		31		1		1
9		33		1		1
10		11		10		ar
11		1		2		1
12		21		20		2
13		41		13		1
14		50		28		1
15		38		9		1
16		13		14		ar
17		45		23		1
18		43		19		1
19		20		19		1
20		20		22		1
21		19		18		1
22		29		28		ar
23		29		3		ar
24		10		9		ar
25		10		15		ar
26		28		17		ar
27		23		22		ar
28		23		24		ar
29		9		8		ar
30		22		27		ar
31		34		2		1
32		46		24		1
33		2		3		1
34		2		35		1
35		24		25		ar
36		14		15		ar
37		14		42		1
38		3		4		ar
39		15		6		ar
40		27		49		1
41		27		26		ar
42		17		18		1
43		17		16		ar
44		25		26		ar
45		25		47		1
46		8		37		1
47		8		7		ar
48		26		48		1
49		4		16		ar
50		4		5		1
51		6		7		ar
52		6		5		1
53		7		36		1

