@<TRIPOS>MOLECULE
SGF-2005-CPB-886-7G
 45 47 0 0 0
SMALL
MULLIKEN_CHARGES
****
Gaussian 16 #p B3LYP/6-31G* opt
@<TRIPOS>ATOM
1		C		-0.7696		4.5445		-0.4216		C.3		1		UNL1		-0.2006
2		O		-1.2359		3.2187		-0.2563		O.3		1		UNL1		-0.4549
3		C		-0.3537		2.4379		0.5228		C.3		1		UNL1		0.0766
4		N		-0.9747		1.1358		0.7201		N.ar		1		UNL1		-0.5224
5		C		-1.0585		0.1817		-0.3096		C.ar		1		UNL1		0.0446
6		S		0.1033		0.3164		-1.6823		S.3		1		UNL1		0.1828
7		C		1.7609		0.3524		-0.9715		C.ar		1		UNL1		-0.1937
8		C		2.5695		1.3853		-1.4143		C.ar		1		UNL1		-0.1590
9		C		3.9283		1.4641		-1.0341		C.ar		1		UNL1		-0.1268
10		C		4.4613		0.5189		-0.1911		C.ar		1		UNL1		-0.1880
11		C		3.6702		-0.5610		0.2828		C.ar		1		UNL1		0.1469
12		C		4.2220		-1.5510		1.1394		C.ar		1		UNL1		-0.1912
13		C		3.4680		-2.6179		1.5695		C.ar		1		UNL1		-0.1295
14		C		2.1233		-2.7424		1.1507		C.ar		1		UNL1		-0.1426
15		C		1.5538		-1.7972		0.3263		C.ar		1		UNL1		-0.1953
16		C		2.2957		-0.6739		-0.1246		C.ar		1		UNL1		0.1323
17		C		-2.0106		-0.8014		-0.3308		C.ar		1		UNL1		0.0358
18		C		-2.1534		-1.8558		-1.4237		C.3		1		UNL1		-0.1442
19		C		-3.4262		-1.6147		-2.2624		C.3		1		UNL1		-0.4543
20		C		-2.1112		-3.2990		-0.8808		C.3		1		UNL1		-0.4655
21		C		-2.9863		-0.8460		0.7716		C.ar		1		UNL1		0.6071
22		O		-3.9418		-1.6069		0.8551		O.2		1		UNL1		-0.5038
23		N		-2.7298		0.0444		1.8171		N.ar		1		UNL1		-0.6921
24		C		-1.8207		1.0783		1.8463		C.ar		1		UNL1		0.7982
25		O		-1.7655		1.8725		2.7683		O.2		1		UNL1		-0.5073
26		H		0.1991		4.5759		-0.9456		H		1		UNL1		0.1321
27		H		-1.5148		5.0683		-1.0243		H		1		UNL1		0.1686
28		H		-0.6611		5.0607		0.5448		H		1		UNL1		0.1439
29		H		0.6128		2.3225		0.0308		H		1		UNL1		0.1594
30		H		-0.2120		2.8710		1.5166		H		1		UNL1		0.1845
31		H		2.1493		2.1500		-2.0613		H		1		UNL1		0.1547
32		H		4.5379		2.2846		-1.4013		H		1		UNL1		0.1411
33		H		5.5010		0.5796		0.1209		H		1		UNL1		0.1404
34		H		5.2605		-1.4499		1.4451		H		1		UNL1		0.1367
35		H		3.9032		-3.3684		2.2233		H		1		UNL1		0.1387
36		H		1.5338		-3.5936		1.4800		H		1		UNL1		0.1402
37		H		0.5241		-1.9104		0.0133		H		1		UNL1		0.1636
38		H		-1.2977		-1.7402		-2.0935		H		1		UNL1		0.1585
39		H		-4.3241		-1.7220		-1.6483		H		1		UNL1		0.1794
40		H		-3.4246		-0.6118		-2.7044		H		1		UNL1		0.1437
41		H		-3.4774		-2.3439		-3.0796		H		1		UNL1		0.1408
42		H		-2.1346		-4.0044		-1.7197		H		1		UNL1		0.1413
43		H		-1.1908		-3.4895		-0.3159		H		1		UNL1		0.1375
44		H		-2.9637		-3.5050		-0.2308		H		1		UNL1		0.1862
45		H		-3.3747		0.0117		2.5989		H		1		UNL1		0.3555
@<TRIPOS>BOND
1		41		19		1
2		40		19		1
3		19		39		1
4		19		18		1
5		38		18		1
6		31		8		1
7		42		20		1
8		6		7		1
9		6		5		1
10		18		20		1
11		18		17		1
12		8		9		ar
13		8		7		ar
14		32		9		1
15		9		10		ar
16		27		1		1
17		7		16		ar
18		26		1		1
19		20		43		1
20		20		44		1
21		1		2		1
22		1		28		1
23		17		5		ar
24		17		21		ar
25		5		4		ar
26		2		3		1
27		10		33		1
28		10		11		ar
29		16		11		ar
30		16		15		ar
31		37		15		1
32		29		3		1
33		11		12		ar
34		15		14		ar
35		3		4		1
36		3		30		1
37		4		24		ar
38		21		22		2
39		21		23		ar
40		12		34		1
41		12		13		ar
42		14		36		1
43		14		13		ar
44		13		35		1
45		23		24		ar
46		23		45		1
47		24		25		2

