@<TRIPOS>MOLECULE
SGF-2005-CPB-886-7T
 55 58 0 0 0
SMALL
MULLIKEN_CHARGES
****
Gaussian 16 #p B3LYP/6-31G* opt
@<TRIPOS>ATOM
1		C		-3.5322		2.2797		-1.0706		C.3		1		UNL1		-0.4581
2		C		-2.8508		2.2389		0.3125		C.3		1		UNL1		-0.1468
3		C		-3.3549		3.3760		1.2253		C.3		1		UNL1		-0.4570
4		C		-1.3325		2.2383		0.2024		C.ar		1		UNL1		0.0617
5		C		-0.5258		1.2169		0.6176		C.ar		1		UNL1		0.0279
6		S		-1.1886		-0.2841		1.3707		S.3		1		UNL1		0.1554
7		C		-2.0093		-1.0972		-0.0179		C.ar		1		UNL1		-0.1777
8		C		-1.3434		-1.2600		-1.2173		C.ar		1		UNL1		-0.1586
9		C		-1.9698		-1.9200		-2.2986		C.ar		1		UNL1		-0.1301
10		C		-3.2350		-2.4408		-2.1577		C.ar		1		UNL1		-0.1891
11		C		-3.9377		-2.3167		-0.9311		C.ar		1		UNL1		0.1436
12		C		-5.2404		-2.8609		-0.7691		C.ar		1		UNL1		-0.1907
13		C		-5.9229		-2.7311		0.4178		C.ar		1		UNL1		-0.1313
14		C		-5.3292		-2.0396		1.4998		C.ar		1		UNL1		-0.1349
15		C		-4.0682		-1.4993		1.3798		C.ar		1		UNL1		-0.2030
16		C		-3.3290		-1.6219		0.1706		C.ar		1		UNL1		0.1227
17		N		0.8816		1.2930		0.5618		N.ar		1		UNL1		-0.5293
18		C		1.7562		0.1869		0.9090		C.3		1		UNL1		0.0855
19		O		1.8377		-0.6756		-0.2149		O.3		1		UNL1		-0.4680
20		C		2.5917		-1.8577		0.0257		C.3		1		UNL1		-0.0969
21		C		4.0903		-1.6377		0.1417		C.ar		1		UNL1		0.1016
22		C		4.8714		-2.5394		0.8751		C.ar		1		UNL1		-0.1793
23		C		6.2576		-2.3885		0.9343		C.ar		1		UNL1		-0.1309
24		C		6.8821		-1.3298		0.2744		C.ar		1		UNL1		-0.1958
25		C		6.0870		-0.4389		-0.4381		C.ar		1		UNL1		0.3830
26		F		6.6800		0.5918		-1.0751		F		1		UNL1		-0.2950
27		C		4.7063		-0.5716		-0.5226		C.ar		1		UNL1		-0.2403
28		C		1.5402		2.3936		-0.0134		C.ar		1		UNL1		0.8008
29		O		2.7524		2.4663		-0.1290		O.2		1		UNL1		-0.5085
30		N		0.6957		3.3956		-0.4328		N.ar		1		UNL1		-0.7008
31		C		-0.7012		3.4297		-0.3903		C.ar		1		UNL1		0.6091
32		O		-1.2871		4.4118		-0.8264		O.2		1		UNL1		-0.5016
33		H		-4.6188		2.2026		-0.9474		H		1		UNL1		0.1406
34		H		-3.3085		3.2140		-1.5908		H		1		UNL1		0.1788
35		H		-3.2050		1.4422		-1.6963		H		1		UNL1		0.1466
36		H		-3.1388		1.2991		0.7876		H		1		UNL1		0.1556
37		H		-2.9062		3.3087		2.2233		H		1		UNL1		0.1379
38		H		-4.4425		3.2993		1.3404		H		1		UNL1		0.1406
39		H		-3.1213		4.3561		0.8035		H		1		UNL1		0.1818
40		H		-0.3285		-0.8916		-1.3239		H		1		UNL1		0.1789
41		H		-1.4332		-2.0247		-3.2374		H		1		UNL1		0.1406
42		H		-3.7142		-2.9607		-2.9835		H		1		UNL1		0.1375
43		H		-5.6893		-3.3855		-1.6091		H		1		UNL1		0.1358
44		H		-6.9180		-3.1532		0.5265		H		1		UNL1		0.1363
45		H		-5.8748		-1.9308		2.4331		H		1		UNL1		0.1369
46		H		-3.6287		-0.9666		2.2165		H		1		UNL1		0.1589
47		H		1.3535		-0.3470		1.7728		H		1		UNL1		0.1677
48		H		2.7308		0.6139		1.1477		H		1		UNL1		0.1967
49		H		2.2164		-2.3740		0.9234		H		1		UNL1		0.1428
50		H		2.3729		-2.5016		-0.8338		H		1		UNL1		0.1728
51		H		4.3946		-3.3633		1.4010		H		1		UNL1		0.1254
52		H		6.8562		-3.0934		1.5046		H		1		UNL1		0.1387
53		H		7.9564		-1.1826		0.3091		H		1		UNL1		0.1464
54		H		4.1254		0.1618		-1.0711		H		1		UNL1		0.1780
55		H		1.1493		4.2025		-0.8470		H		1		UNL1		0.3570
@<TRIPOS>BOND
1		41		9		1
2		42		10		1
3		9		10		ar
4		9		8		ar
5		10		11		ar
6		35		1		1
7		43		12		1
8		34		1		1
9		40		8		1
10		8		7		ar
11		26		25		1
12		54		27		1
13		1		33		1
14		1		2		1
15		11		12		ar
16		11		16		ar
17		55		30		1
18		50		20		1
19		32		31		2
20		12		13		ar
21		27		25		ar
22		27		21		ar
23		25		24		ar
24		30		31		ar
25		30		28		ar
26		31		4		ar
27		19		20		1
28		19		18		1
29		29		28		2
30		7		16		ar
31		7		6		1
32		28		17		ar
33		20		21		1
34		20		49		1
35		21		22		ar
36		16		15		ar
37		4		2		1
38		4		5		ar
39		24		53		1
40		24		23		ar
41		2		36		1
42		2		3		1
43		13		44		1
44		13		14		ar
45		17		5		ar
46		17		18		1
47		5		6		1
48		39		3		1
49		22		23		ar
50		22		51		1
51		18		48		1
52		18		47		1
53		23		52		1
54		3		38		1
55		3		37		1
56		15		14		ar
57		15		46		1
58		14		45		1

