@<TRIPOS>MOLECULE
SGF-2005-APALS-457-6E
 54 57 0 0 0
SMALL
MULLIKEN_CHARGES
****
Gaussian 16 #p B3LYP/6-31G* opt
@<TRIPOS>ATOM
1		C		-3.9124		-2.7925		2.6379		C.3		1		UNL1		-0.4500
2		C		-3.2961		-1.4822		2.1120		C.3		1		UNL1		-0.3287
3		C		-2.2700		-1.7280		1.0383		C.ar		1		UNL1		0.0775
4		C		-2.4641		-1.5275		-0.2911		C.ar		1		UNL1		0.0292
5		S		-3.9122		-0.8635		-1.1211		S.3		1		UNL1		0.1339
6		C		-4.1347		0.7910		-0.4401		C.ar		1		UNL1		-0.1703
7		C		-5.4091		1.0723		0.0170		C.ar		1		UNL1		-0.1530
8		C		-5.7499		2.3668		0.4712		C.ar		1		UNL1		-0.1276
9		C		-4.8007		3.3598		0.4887		C.ar		1		UNL1		-0.1873
10		C		-3.4773		3.1107		0.0366		C.ar		1		UNL1		0.1457
11		C		-2.4933		4.1352		0.0575		C.ar		1		UNL1		-0.1909
12		C		-1.2128		3.9007		-0.3879		C.ar		1		UNL1		-0.1312
13		C		-0.8643		2.6249		-0.8872		C.ar		1		UNL1		-0.1441
14		C		-1.7970		1.6120		-0.9272		C.ar		1		UNL1		-0.1906
15		C		-3.1234		1.8085		-0.4603		C.ar		1		UNL1		0.1362
16		N		-1.4602		-1.8773		-1.1919		N.ar		1		UNL1		-0.6143
17		C		-0.2603		-2.3418		-0.7380		C.ar		1		UNL1		0.3276
18		S		0.9191		-2.7012		-2.0414		S.3		1		UNL1		0.1548
19		C		2.4336		-2.2200		-1.1538		C.3		1		UNL1		-0.5464
20		C		2.6108		-0.6998		-1.0010		C.2		1		UNL1		0.4273
21		O		1.7182		0.0746		-1.3129		O.2		1		UNL1		-0.4648
22		C		3.9025		-0.2202		-0.4411		C.ar		1		UNL1		0.0847
23		C		4.9299		-1.0817		-0.0089		C.ar		1		UNL1		-0.1834
24		C		6.1119		-0.5769		0.5081		C.ar		1		UNL1		-0.1751
25		C		6.3026		0.8117		0.6064		C.ar		1		UNL1		0.3901
26		O		7.4934		1.2053		1.1230		O.3		1		UNL1		-0.4983
27		C		7.7500		2.5974		1.2647		C.3		1		UNL1		-0.2218
28		C		5.2889		1.6853		0.1815		C.ar		1		UNL1		-0.1950
29		C		4.1073		1.1633		-0.3317		C.ar		1		UNL1		-0.1639
30		N		0.0233		-2.5276		0.5033		N.ar		1		UNL1		-0.4869
31		C		-0.9424		-2.2341		1.4876		C.ar		1		UNL1		0.5226
32		O		-0.6912		-2.4006		2.6738		O.2		1		UNL1		-0.4962
33		H		-3.1336		-3.4466		3.0392		H		1		UNL1		0.1778
34		H		-4.4439		-3.3265		1.8421		H		1		UNL1		0.1424
35		H		-4.6273		-2.5792		3.4406		H		1		UNL1		0.1420
36		H		-4.0847		-0.8211		1.7463		H		1		UNL1		0.1516
37		H		-2.7933		-0.9743		2.9421		H		1		UNL1		0.1707
38		H		-6.1560		0.2844		0.0322		H		1		UNL1		0.1531
39		H		-6.7600		2.5604		0.8204		H		1		UNL1		0.1390
40		H		-5.0482		4.3545		0.8513		H		1		UNL1		0.1373
41		H		-2.7753		5.1141		0.4379		H		1		UNL1		0.1327
42		H		-0.4701		4.6932		-0.3591		H		1		UNL1		0.1322
43		H		0.1453		2.4252		-1.2338		H		1		UNL1		0.1619
44		H		-1.4974		0.6488		-1.3164		H		1		UNL1		0.1451
45		H		-1.5610		-1.6073		-2.1628		H		1		UNL1		0.3651
46		H		3.2670		-2.6617		-1.7083		H		1		UNL1		0.1959
47		H		2.3927		-2.6850		-0.1628		H		1		UNL1		0.2488
48		H		4.8075		-2.1587		-0.0631		H		1		UNL1		0.1420
49		H		6.9058		-1.2338		0.8481		H		1		UNL1		0.1496
50		H		7.7358		3.1082		0.2937		H		1		UNL1		0.1589
51		H		8.7484		2.6716		1.6983		H		1		UNL1		0.1782
52		H		7.0245		3.0717		1.9371		H		1		UNL1		0.1612
53		H		5.4137		2.7597		0.2502		H		1		UNL1		0.1414
54		H		3.3144		1.8270		-0.6600		H		1		UNL1		0.1633
@<TRIPOS>BOND
1		45		16		1
2		18		19		1
3		18		17		1
4		46		19		1
5		44		14		1
6		21		20		2
7		43		13		1
8		16		17		ar
9		16		4		ar
10		19		20		1
11		19		47		1
12		5		6		1
13		5		4		1
14		20		22		1
15		14		13		ar
16		14		15		ar
17		13		12		ar
18		17		30		ar
19		54		29		1
20		15		6		ar
21		15		10		ar
22		22		29		ar
23		22		23		ar
24		6		7		ar
25		12		42		1
26		12		11		ar
27		29		28		ar
28		4		3		ar
29		48		23		1
30		23		24		ar
31		7		38		1
32		7		8		ar
33		10		11		ar
34		10		9		ar
35		11		41		1
36		28		53		1
37		28		25		ar
38		50		27		1
39		8		9		ar
40		8		39		1
41		9		40		1
42		30		31		ar
43		24		25		ar
44		24		49		1
45		25		26		1
46		3		31		ar
47		3		2		1
48		26		27		1
49		27		51		1
50		27		52		1
51		31		32		2
52		36		2		1
53		34		1		1
54		2		1		1
55		2		37		1
56		1		33		1
57		1		35		1

