@<TRIPOS>MOLECULE
SGF-2005-APALS-457-5F
 44 46 0 0 0
SMALL
MULLIKEN_CHARGES
****
Gaussian 16 #p B3LYP/6-31G* opt
@<TRIPOS>ATOM
1		C		5.7034		0.2134		0.7426		C.3		1		UNL1		-0.4450
2		C		4.4403		0.5784		1.5446		C.3		1		UNL1		-0.3427
3		C		3.2479		0.8635		0.6663		C.ar		1		UNL1		0.0533
4		C		2.2653		-0.0430		0.3389		C.ar		1		UNL1		0.0162
5		S		2.3647		-1.7071		1.0075		S.3		1		UNL1		0.1581
6		C		0.9822		-2.5575		0.2442		C.ar		1		UNL1		-0.0890
7		C		-0.1626		-2.8268		1.0026		C.ar		1		UNL1		-0.1463
8		C		-1.2125		-3.5585		0.4434		C.ar		1		UNL1		-0.1222
9		C		-1.1226		-4.0193		-0.8709		C.ar		1		UNL1		-0.1288
10		C		0.0234		-3.7554		-1.6261		C.ar		1		UNL1		-0.1273
11		C		1.0791		-3.0335		-1.0698		C.ar		1		UNL1		-0.1311
12		N		1.1923		0.2285		-0.4735		N.ar		1		UNL1		-0.4947
13		C		1.1115		1.4198		-0.9852		C.ar		1		UNL1		0.3496
14		S		-0.2122		1.9120		-2.0721		S.3		1		UNL1		0.1795
15		C		-1.1949		0.3595		-2.2044		C.3		1		UNL1		-0.5462
16		C		-2.6598		0.6012		-1.8259		C.2		1		UNL1		0.4048
17		O		-3.4809		0.7000		-2.7255		O.2		1		UNL1		-0.4507
18		C		-3.0585		0.7147		-0.3940		C.ar		1		UNL1		0.0732
19		C		-2.1724		0.4943		0.6732		C.ar		1		UNL1		-0.1794
20		C		-2.6114		0.6038		1.9908		C.ar		1		UNL1		-0.2159
21		C		-3.9414		0.9345		2.2273		C.ar		1		UNL1		0.3943
22		F		-4.3685		1.0416		3.4985		F		1		UNL1		-0.2874
23		C		-4.8476		1.1569		1.1926		C.ar		1		UNL1		-0.1987
24		C		-4.3975		1.0437		-0.1162		C.ar		1		UNL1		-0.1573
25		N		2.0293		2.3890		-0.7370		N.ar		1		UNL1		-0.6570
26		C		3.1627		2.1971		0.0974		C.ar		1		UNL1		0.5847
27		O		3.9469		3.1224		0.2632		O.2		1		UNL1		-0.5196
28		H		6.5466		0.0307		1.4182		H		1		UNL1		0.1470
29		H		5.5457		-0.6899		0.1434		H		1		UNL1		0.1519
30		H		5.9776		1.0328		0.0709		H		1		UNL1		0.1681
31		H		4.6442		1.4791		2.1338		H		1		UNL1		0.1716
32		H		4.2050		-0.2231		2.2538		H		1		UNL1		0.1603
33		H		-0.2276		-2.4654		2.0243		H		1		UNL1		0.1523
34		H		-2.1000		-3.7646		1.0352		H		1		UNL1		0.1439
35		H		-1.9405		-4.5876		-1.3050		H		1		UNL1		0.1431
36		H		0.0994		-4.1201		-2.6469		H		1		UNL1		0.1424
37		H		1.9761		-2.8361		-1.6480		H		1		UNL1		0.1537
38		H		-0.6880		-0.3826		-1.5816		H		1		UNL1		0.2537
39		H		-1.1740		0.0471		-3.2491		H		1		UNL1		0.2133
40		H		-1.1362		0.2307		0.4884		H		1		UNL1		0.1803
41		H		-1.9428		0.4398		2.8293		H		1		UNL1		0.1556
42		H		-5.8760		1.4122		1.4260		H		1		UNL1		0.1566
43		H		-5.0711		1.2069		-0.9507		H		1		UNL1		0.1740
44		H		1.9522		3.3121		-1.1527		H		1		UNL1		0.3581
@<TRIPOS>BOND
1		39		15		1
2		17		16		2
3		36		10		1
4		15		14		1
5		15		16		1
6		15		38		1
7		14		13		1
8		16		18		1
9		37		11		1
10		10		11		ar
11		10		9		ar
12		35		9		1
13		44		25		1
14		11		6		ar
15		13		25		ar
16		13		12		ar
17		43		24		1
18		9		8		ar
19		25		26		ar
20		12		4		ar
21		18		24		ar
22		18		19		ar
23		24		23		ar
24		30		1		1
25		26		27		2
26		26		3		ar
27		29		1		1
28		6		7		ar
29		6		5		1
30		4		3		ar
31		4		5		1
32		8		7		ar
33		8		34		1
34		40		19		1
35		3		2		1
36		19		20		ar
37		1		28		1
38		1		2		1
39		7		33		1
40		23		42		1
41		23		21		ar
42		2		31		1
43		2		32		1
44		20		21		ar
45		20		41		1
46		21		22		1

