@<TRIPOS>MOLECULE
SGF-2005-APALS-457-5B
 50 53 0 0 0
SMALL
MULLIKEN_CHARGES
****
Gaussian 16 #p B3LYP/6-31G* opt
@<TRIPOS>ATOM
1		C		6.0408		-0.6884		-0.8756		C.3		1		UNL1		-0.4470
2		C		4.6936		-0.7151		-1.6223		C.3		1		UNL1		-0.3406
3		C		3.6632		0.2055		-1.0193		C.ar		1		UNL1		0.0533
4		C		2.6989		-0.1595		-0.1070		C.ar		1		UNL1		0.0122
5		S		2.6840		-1.8492		0.5033		S.3		1		UNL1		0.1636
6		C		1.0630		-2.0364		1.2525		C.ar		1		UNL1		-0.1644
7		C		0.9353		-1.7837		2.6049		C.ar		1		UNL1		-0.1441
8		C		-0.2943		-1.9957		3.2698		C.ar		1		UNL1		-0.1336
9		C		-1.3800		-2.4732		2.5735		C.ar		1		UNL1		-0.1872
10		C		-1.2878		-2.7621		1.1863		C.ar		1		UNL1		0.1445
11		C		-2.4010		-3.2715		0.4644		C.ar		1		UNL1		-0.1876
12		C		-2.3051		-3.5572		-0.8775		C.ar		1		UNL1		-0.1313
13		C		-1.0834		-3.3396		-1.5587		C.ar		1		UNL1		-0.1405
14		C		0.0150		-2.8429		-0.8913		C.ar		1		UNL1		-0.2021
15		C		-0.0461		-2.5412		0.4967		C.ar		1		UNL1		0.1164
16		N		1.7687		0.6971		0.4324		N.ar		1		UNL1		-0.4921
17		C		1.8311		1.9458		0.0817		C.ar		1		UNL1		0.3500
18		S		0.7292		3.1894		0.7274		S.3		1		UNL1		0.1796
19		C		-0.2651		2.2233		1.9387		C.3		1		UNL1		-0.5450
20		C		-1.7612		2.4691		1.7257		C.2		1		UNL1		0.4023
21		O		-2.3474		3.2025		2.5071		O.2		1		UNL1		-0.4469
22		C		-2.4718		1.8269		0.5817		C.ar		1		UNL1		0.0782
23		C		-3.8079		2.1971		0.3546		C.ar		1		UNL1		-0.1534
24		C		-4.5383		1.6320		-0.6830		C.ar		1		UNL1		-0.1320
25		C		-3.9244		0.6786		-1.4995		C.ar		1		UNL1		-0.0600
26		CL		-4.8408		-0.0469		-2.8093		Cl		1		UNL1		-0.0118
27		C		-2.6018		0.2887		-1.2933		C.ar		1		UNL1		-0.1384
28		C		-1.8783		0.8680		-0.2528		C.ar		1		UNL1		-0.1773
29		N		2.7523		2.4193		-0.7975		N.ar		1		UNL1		-0.6575
30		C		3.7328		1.6025		-1.4168		C.ar		1		UNL1		0.5864
31		O		4.5264		2.1075		-2.2002		O.2		1		UNL1		-0.5183
32		H		6.7596		-1.3587		-1.3601		H		1		UNL1		0.1476
33		H		5.9268		-1.0088		0.1660		H		1		UNL1		0.1530
34		H		6.4610		0.3221		-0.8826		H		1		UNL1		0.1677
35		H		4.8601		-0.3975		-2.6572		H		1		UNL1		0.1703
36		H		4.3052		-1.7393		-1.6501		H		1		UNL1		0.1590
37		H		1.7932		-1.4180		3.1597		H		1		UNL1		0.1559
38		H		-0.3709		-1.7847		4.3327		H		1		UNL1		0.1425
39		H		-2.3273		-2.6444		3.0791		H		1		UNL1		0.1422
40		H		-3.3346		-3.4332		0.9976		H		1		UNL1		0.1386
41		H		-3.1630		-3.9481		-1.4171		H		1		UNL1		0.1419
42		H		-1.0105		-3.5717		-2.6178		H		1		UNL1		0.1403
43		H		0.9491		-2.6873		-1.4198		H		1		UNL1		0.1641
44		H		0.0360		1.1782		1.8229		H		1		UNL1		0.2515
45		H		-0.0120		2.5764		2.9391		H		1		UNL1		0.2137
46		H		-4.2580		2.9359		1.0093		H		1		UNL1		0.1730
47		H		-5.5688		1.9196		-0.8620		H		1		UNL1		0.1623
48		H		-2.1465		-0.4631		-1.9276		H		1		UNL1		0.1677
49		H		-0.8513		0.5530		-0.0991		H		1		UNL1		0.1745
50		H		2.7924		3.4032		-1.0449		H		1		UNL1		0.3583
@<TRIPOS>BOND
1		26		25		1
2		35		2		1
3		42		13		1
4		31		30		2
5		48		27		1
6		36		2		1
7		2		3		1
8		2		1		1
9		13		14		ar
10		13		12		ar
11		25		27		ar
12		25		24		ar
13		43		14		1
14		41		12		1
15		30		3		ar
16		30		29		ar
17		32		1		1
18		27		28		ar
19		50		29		1
20		3		4		ar
21		14		15		ar
22		34		1		1
23		12		11		ar
24		1		33		1
25		47		24		1
26		29		17		ar
27		24		23		ar
28		28		49		1
29		28		22		ar
30		4		16		ar
31		4		5		1
32		17		16		ar
33		17		18		1
34		23		22		ar
35		23		46		1
36		11		40		1
37		11		10		ar
38		15		10		ar
39		15		6		ar
40		5		6		1
41		22		20		1
42		18		19		1
43		10		9		ar
44		6		7		ar
45		20		19		1
46		20		21		2
47		44		19		1
48		19		45		1
49		9		39		1
50		9		8		ar
51		7		37		1
52		7		8		ar
53		8		38		1

