@<TRIPOS>MOLECULE
SGF-2005-APALS-457-5C
 50 53 0 0 0
SMALL
MULLIKEN_CHARGES
****
Gaussian 16 #p B3LYP/6-31G* opt
@<TRIPOS>ATOM
1		C		3.1623		-4.0559		0.2619		C.3		1		UNL1		-0.4500
2		C		3.3323		-2.6644		-0.3783		C.3		1		UNL1		-0.3337
3		C		2.0147		-1.9522		-0.5449		C.ar		1		UNL1		0.0871
4		C		1.4791		-1.0013		0.2904		C.ar		1		UNL1		-0.0156
5		S		2.2919		-0.3482		1.7688		S.3		1		UNL1		0.1644
6		C		3.8549		0.3348		1.1973		C.ar		1		UNL1		-0.1806
7		C		5.0070		-0.1449		1.7933		C.ar		1		UNL1		-0.1550
8		C		6.2718		0.4057		1.4829		C.ar		1		UNL1		-0.1263
9		C		6.3737		1.4193		0.5605		C.ar		1		UNL1		-0.1895
10		C		5.2152		1.9496		-0.0679		C.ar		1		UNL1		0.1471
11		C		5.3107		3.0106		-1.0080		C.ar		1		UNL1		-0.1921
12		C		4.1849		3.5474		-1.5881		C.ar		1		UNL1		-0.1301
13		C		2.9081		3.0479		-1.2410		C.ar		1		UNL1		-0.1386
14		C		2.7778		2.0140		-0.3397		C.ar		1		UNL1		-0.2032
15		C		3.9202		1.4225		0.2639		C.ar		1		UNL1		0.1286
16		N		0.2110		-0.4744		0.1511		N.ar		1		UNL1		-0.4734
17		C		-0.5143		-0.8855		-0.8389		C.ar		1		UNL1		0.3423
18		S		-2.1750		-0.2953		-1.1299		S.3		1		UNL1		0.1628
19		C		-2.4789		0.6789		0.4059		C.3		1		UNL1		-0.5537
20		C		-3.6658		0.1094		1.1875		C.2		1		UNL1		0.4208
21		O		-3.4573		-0.5384		2.1999		O.2		1		UNL1		-0.4411
22		C		-5.0530		0.3616		0.6969		C.ar		1		UNL1		0.0806
23		C		-6.1186		-0.1881		1.4318		C.ar		1		UNL1		-0.1562
24		C		-7.4348		0.0068		1.0353		C.ar		1		UNL1		-0.1963
25		C		-7.6795		0.7605		-0.1111		C.ar		1		UNL1		0.3947
26		F		-8.9512		0.9540		-0.5020		F		1		UNL1		-0.2854
27		C		-6.6531		1.3196		-0.8647		C.ar		1		UNL1		-0.2025
28		C		-5.3380		1.1167		-0.4525		C.ar		1		UNL1		-0.1818
29		N		-0.0650		-1.7819		-1.7575		N.ar		1		UNL1		-0.6540
30		C		1.2100		-2.3900		-1.6864		C.ar		1		UNL1		0.5891
31		O		1.5308		-3.2138		-2.5325		O.2		1		UNL1		-0.5153
32		H		4.1344		-4.5549		0.3463		H		1		UNL1		0.1452
33		H		2.5102		-4.6868		-0.3495		H		1		UNL1		0.1678
34		H		2.7310		-3.9773		1.2658		H		1		UNL1		0.1524
35		H		4.0191		-2.0638		0.2178		H		1		UNL1		0.1625
36		H		3.7773		-2.7861		-1.3720		H		1		UNL1		0.1683
37		H		4.9366		-0.9640		2.5026		H		1		UNL1		0.1527
38		H		7.1596		0.0082		1.9665		H		1		UNL1		0.1381
39		H		7.3440		1.8365		0.3023		H		1		UNL1		0.1363
40		H		6.2970		3.3954		-1.2564		H		1		UNL1		0.1332
41		H		4.2723		4.3597		-2.3045		H		1		UNL1		0.1333
42		H		2.0202		3.4880		-1.6869		H		1		UNL1		0.1316
43		H		1.7912		1.6514		-0.0738		H		1		UNL1		0.1702
44		H		-2.6221		1.7244		0.1224		H		1		UNL1		0.1986
45		H		-1.5743		0.5798		1.0101		H		1		UNL1		0.2634
46		H		-5.8848		-0.7696		2.3172		H		1		UNL1		0.1784
47		H		-8.2689		-0.4099		1.5901		H		1		UNL1		0.1602
48		H		-6.8915		1.8990		-1.7502		H		1		UNL1		0.1582
49		H		-4.5383		1.5551		-1.0414		H		1		UNL1		0.1495
50		H		-0.6527		-2.1010		-2.5215		H		1		UNL1		0.3569
@<TRIPOS>BOND
1		31		30		2
2		50		29		1
3		41		12		1
4		29		30		ar
5		29		17		ar
6		48		27		1
7		42		13		1
8		30		3		ar
9		12		13		ar
10		12		11		ar
11		36		2		1
12		40		11		1
13		13		14		ar
14		18		17		1
15		18		19		1
16		49		28		1
17		11		10		ar
18		27		28		ar
19		27		25		ar
20		17		16		ar
21		3		2		1
22		3		4		ar
23		26		25		1
24		28		22		ar
25		2		35		1
26		2		1		1
27		33		1		1
28		14		43		1
29		14		15		ar
30		25		24		ar
31		10		15		ar
32		10		9		ar
33		44		19		1
34		16		4		ar
35		1		32		1
36		1		34		1
37		15		6		ar
38		4		5		1
39		39		9		1
40		19		45		1
41		19		20		1
42		9		8		ar
43		22		20		1
44		22		23		ar
45		24		23		ar
46		24		47		1
47		20		21		2
48		6		5		1
49		6		7		ar
50		23		46		1
51		8		7		ar
52		8		38		1
53		7		37		1

