@<TRIPOS>MOLECULE
SGF-2005-CPB-886-7D
 45 47 0 0 0
SMALL
MULLIKEN_CHARGES
****
Gaussian 16 #p B3LYP/6-31G* opt
@<TRIPOS>ATOM
1		C		3.6670		4.0388		0.0748		C.3		1		UNL1		-0.4616
2		C		2.2626		3.4422		0.0216		C.3		1		UNL1		-0.0271
3		O		2.2347		2.0337		0.2589		O.3		1		UNL1		-0.4640
4		C		2.6820		1.2595		-0.8366		C.3		1		UNL1		0.0872
5		N		2.4180		-0.1406		-0.5438		N.ar		1		UNL1		-0.5336
6		C		1.1297		-0.7070		-0.6214		C.ar		1		UNL1		0.0450
7		S		-0.1304		0.3204		-1.3997		S.3		1		UNL1		0.1562
8		C		-1.2919		0.6371		-0.0547		C.ar		1		UNL1		-0.1798
9		C		-0.8304		1.0954		1.1644		C.ar		1		UNL1		-0.1593
10		C		-1.7365		1.3724		2.2127		C.ar		1		UNL1		-0.1300
11		C		-3.0906		1.2250		2.0204		C.ar		1		UNL1		-0.1895
12		C		-3.6017		0.7838		0.7722		C.ar		1		UNL1		0.1438
13		C		-4.9990		0.6390		0.5571		C.ar		1		UNL1		-0.1907
14		C		-5.4911		0.2016		-0.6504		C.ar		1		UNL1		-0.1314
15		C		-4.5986		-0.1189		-1.7002		C.ar		1		UNL1		-0.1348
16		C		-3.2383		0.0095		-1.5285		C.ar		1		UNL1		-0.2036
17		C		-2.6936		0.4678		-0.2969		C.ar		1		UNL1		0.1229
18		C		0.8743		-1.9868		-0.2261		C.ar		1		UNL1		0.0540
19		C		-0.4516		-2.7003		-0.3283		C.3		1		UNL1		-0.3280
20		C		-1.1580		-2.8839		1.0285		C.3		1		UNL1		-0.4538
21		C		1.9725		-2.7879		0.3335		C.ar		1		UNL1		0.6079
22		O		1.8741		-3.9460		0.7153		O.2		1		UNL1		-0.5032
23		N		3.2063		-2.1354		0.3869		N.ar		1		UNL1		-0.7008
24		C		3.5089		-0.8507		-0.0099		C.ar		1		UNL1		0.7963
25		O		4.6313		-0.3848		0.0911		O.2		1		UNL1		-0.5097
26		H		3.6129		5.1301		-0.0138		H		1		UNL1		0.1488
27		H		4.1503		3.7913		1.0253		H		1		UNL1		0.1688
28		H		4.3032		3.6710		-0.7374		H		1		UNL1		0.1560
29		H		1.6380		3.8710		0.8110		H		1		UNL1		0.1527
30		H		1.7783		3.6654		-0.9424		H		1		UNL1		0.1340
31		H		2.1583		1.5505		-1.7524		H		1		UNL1		0.1590
32		H		3.7603		1.3421		-0.9773		H		1		UNL1		0.1904
33		H		0.2331		1.2525		1.3102		H		1		UNL1		0.1832
34		H		-1.3513		1.7176		3.1681		H		1		UNL1		0.1394
35		H		-3.7909		1.4497		2.8211		H		1		UNL1		0.1367
36		H		-5.6753		0.8828		1.3728		H		1		UNL1		0.1350
37		H		-6.5620		0.0965		-0.7997		H		1		UNL1		0.1356
38		H		-4.9903		-0.4732		-2.6498		H		1		UNL1		0.1363
39		H		-2.5663		-0.2455		-2.3410		H		1		UNL1		0.1579
40		H		-1.1067		-2.1688		-1.0222		H		1		UNL1		0.1621
41		H		-0.2576		-3.6929		-0.7515		H		1		UNL1		0.1650
42		H		-0.5326		-3.4687		1.7083		H		1		UNL1		0.1722
43		H		-1.3812		-1.9204		1.4966		H		1		UNL1		0.1545
44		H		-2.1031		-3.4203		0.8878		H		1		UNL1		0.1446
45		H		3.9831		-2.6674		0.7630		H		1		UNL1		0.3555
@<TRIPOS>BOND
1		38		15		1
2		39		16		1
3		31		4		1
4		15		16		ar
5		15		14		ar
6		16		17		ar
7		7		6		1
8		7		8		1
9		40		19		1
10		32		4		1
11		30		2		1
12		4		5		1
13		4		3		1
14		37		14		1
15		41		19		1
16		28		1		1
17		14		13		ar
18		6		5		ar
19		6		18		ar
20		5		24		ar
21		19		18		1
22		19		20		1
23		17		8		ar
24		17		12		ar
25		18		21		ar
26		8		9		ar
27		26		1		1
28		24		25		2
29		24		23		ar
30		2		1		1
31		2		3		1
32		2		29		1
33		1		27		1
34		21		23		ar
35		21		22		2
36		23		45		1
37		13		12		ar
38		13		36		1
39		12		11		ar
40		44		20		1
41		20		43		1
42		20		42		1
43		9		33		1
44		9		10		ar
45		11		10		ar
46		11		35		1
47		10		34		1

