@<TRIPOS>MOLECULE
SGF-2005-CPB-886-8A
 42 44 0 0 0
SMALL
MULLIKEN_CHARGES
****
Gaussian 16 #p B3LYP/6-31G* opt
@<TRIPOS>ATOM
1		C		3.0298		3.3424		1.0392		C.3		1		UNL1		-0.4487
2		C		2.1617		2.6457		-0.0237		C.3		1		UNL1		-0.3204
3		C		2.4311		1.1620		-0.1195		C.ar		1		UNL1		0.0345
4		C		1.7096		0.1728		0.4845		C.ar		1		UNL1		0.0277
5		S		0.3652		0.6246		1.5995		S.3		1		UNL1		0.1616
6		C		-1.1178		0.5368		0.5841		C.ar		1		UNL1		-0.0923
7		C		-1.1310		0.9406		-0.7776		C.ar		1		UNL1		-0.1547
8		C		-2.3126		0.9402		-1.4814		C.ar		1		UNL1		-0.1843
9		C		-3.5389		0.5639		-0.8700		C.ar		1		UNL1		0.1336
10		C		-4.7724		0.5653		-1.5729		C.ar		1		UNL1		-0.1893
11		C		-5.9402		0.1930		-0.9452		C.ar		1		UNL1		-0.1335
12		C		-5.9258		-0.1990		0.4160		C.ar		1		UNL1		-0.1337
13		C		-4.7458		-0.2114		1.1254		C.ar		1		UNL1		-0.1889
14		C		-3.5243		0.1689		0.5069		C.ar		1		UNL1		0.1457
15		C		-2.2887		0.1546		1.2077		C.ar		1		UNL1		-0.2318
16		N		2.0655		-1.1837		0.3876		N.ar		1		UNL1		-0.5286
17		C		1.2974		-2.3214		0.9542		C.3		1		UNL1		0.0867
18		O		0.7755		-3.1738		-0.0178		O.3		1		UNL1		-0.4319
19		C		-0.3557		-2.6822		-0.7202		C.3		1		UNL1		-0.2172
20		C		3.2677		-1.5787		-0.2269		C.ar		1		UNL1		0.7936
21		O		3.6863		-2.7205		-0.1988		O.2		1		UNL1		-0.4948
22		N		3.9399		-0.5593		-0.8780		N.ar		1		UNL1		-0.6999
23		C		3.6277		0.7980		-0.8987		C.ar		1		UNL1		0.6084
24		O		4.3324		1.5904		-1.5088		O.2		1		UNL1		-0.5037
25		H		4.0931		3.1922		0.8290		H		1		UNL1		0.1685
26		H		2.8342		4.4205		1.0425		H		1		UNL1		0.1488
27		H		2.8133		2.9545		2.0408		H		1		UNL1		0.1502
28		H		2.3900		3.0817		-1.0020		H		1		UNL1		0.1707
29		H		1.1058		2.8285		0.1868		H		1		UNL1		0.1612
30		H		-0.2072		1.2403		-1.2610		H		1		UNL1		0.1535
31		H		-2.3187		1.2429		-2.5258		H		1		UNL1		0.1430
32		H		-4.7795		0.8668		-2.6176		H		1		UNL1		0.1371
33		H		-6.8786		0.1985		-1.4925		H		1		UNL1		0.1378
34		H		-6.8537		-0.4906		0.9000		H		1		UNL1		0.1381
35		H		-4.7337		-0.5120		2.1702		H		1		UNL1		0.1368
36		H		-2.2789		-0.1634		2.2474		H		1		UNL1		0.1481
37		H		0.5236		-1.8994		1.5988		H		1		UNL1		0.1690
38		H		1.9971		-2.9236		1.5320		H		1		UNL1		0.1885
39		H		-0.1142		-1.7960		-1.3217		H		1		UNL1		0.1438
40		H		-0.6736		-3.4863		-1.3876		H		1		UNL1		0.1668
41		H		-1.1792		-2.4297		-0.0377		H		1		UNL1		0.1441
42		H		4.7945		-0.8369		-1.3482		H		1		UNL1		0.3558
@<TRIPOS>BOND
1		32		10		1
2		31		8		1
3		10		11		ar
4		10		9		ar
5		24		23		2
6		33		11		1
7		8		9		ar
8		8		7		ar
9		40		19		1
10		42		22		1
11		39		19		1
12		30		7		1
13		28		2		1
14		11		12		ar
15		23		22		ar
16		23		3		ar
17		22		20		ar
18		9		14		ar
19		7		6		ar
20		19		41		1
21		19		18		1
22		20		21		2
23		20		16		ar
24		3		2		1
25		3		4		ar
26		2		29		1
27		2		1		1
28		18		17		1
29		16		4		ar
30		16		17		1
31		12		34		1
32		12		13		ar
33		4		5		1
34		14		13		ar
35		14		15		ar
36		6		15		ar
37		6		5		1
38		25		1		1
39		17		38		1
40		17		37		1
41		1		26		1
42		1		27		1
43		13		35		1
44		15		36		1

