@<TRIPOS>MOLECULE
SGF-2005-CPB-886-7V
 58 61 0 0 0
SMALL
MULLIKEN_CHARGES
****
Gaussian 16 #p B3LYP/6-31G* opt
@<TRIPOS>ATOM
1		C		3.9639		-2.1708		2.8089		C.3		1		UNL1		-0.4549
2		C		3.9471		-1.0762		1.7221		C.3		1		UNL1		-0.1456
3		C		5.3766		-0.6819		1.2979		C.3		1		UNL1		-0.4599
4		C		3.0829		-1.4793		0.5336		C.ar		1		UNL1		0.0443
5		C		1.9245		-0.8551		0.1622		C.ar		1		UNL1		0.0288
6		S		1.2602		0.4906		1.1493		S.3		1		UNL1		0.1975
7		C		1.4564		1.9085		0.0507		C.ar		1		UNL1		-0.1867
8		C		2.5238		1.9983		-0.8211		C.ar		1		UNL1		-0.1550
9		C		2.6870		3.1333		-1.6469		C.ar		1		UNL1		-0.1252
10		C		1.7985		4.1800		-1.5752		C.ar		1		UNL1		-0.1918
11		C		0.6955		4.1313		-0.6830		C.ar		1		UNL1		0.1465
12		C		-0.2316		5.2046		-0.5960		C.ar		1		UNL1		-0.1910
13		C		-1.3069		5.1486		0.2600		C.ar		1		UNL1		-0.1304
14		C		-1.5067		4.0045		1.0671		C.ar		1		UNL1		-0.1343
15		C		-0.6281		2.9453		1.0105		C.ar		1		UNL1		-0.2079
16		C		0.5002		2.9730		0.1449		C.ar		1		UNL1		0.1154
17		N		1.1722		-1.2474		-0.9603		N.ar		1		UNL1		-0.5239
18		C		-0.1872		-0.7805		-1.1933		C.3		1		UNL1		0.0876
19		O		-1.0443		-1.4798		-0.3186		O.3		1		UNL1		-0.4736
20		C		-2.4039		-1.0917		-0.4648		C.3		1		UNL1		-0.0090
21		C		-3.2423		-1.9318		0.5012		C.3		1		UNL1		-0.3657
22		C		-4.7145		-1.5891		0.4205		C.ar		1		UNL1		0.1576
23		C		-5.5454		-2.2135		-0.5200		C.ar		1		UNL1		-0.1798
24		C		-6.8950		-1.8743		-0.6215		C.ar		1		UNL1		-0.1274
25		C		-7.4379		-0.9011		0.2196		C.ar		1		UNL1		-0.1306
26		C		-6.6222		-0.2723		1.1617		C.ar		1		UNL1		-0.1272
27		C		-5.2728		-0.6148		1.2588		C.ar		1		UNL1		-0.1798
28		C		1.5742		-2.3149		-1.7811		C.ar		1		UNL1		0.7977
29		O		0.9475		-2.6918		-2.7557		O.2		1		UNL1		-0.5067
30		N		2.7574		-2.9071		-1.3924		N.ar		1		UNL1		-0.6980
31		C		3.5388		-2.6299		-0.2694		C.ar		1		UNL1		0.6098
32		O		4.5272		-3.3151		-0.0425		O.2		1		UNL1		-0.5012
33		H		2.9486		-2.4045		3.1494		H		1		UNL1		0.1417
34		H		4.5374		-1.8223		3.6759		H		1		UNL1		0.1412
35		H		4.4254		-3.0885		2.4364		H		1		UNL1		0.1810
36		H		3.4859		-0.1891		2.1625		H		1		UNL1		0.1619
37		H		5.3615		0.1326		0.5637		H		1		UNL1		0.1357
38		H		5.9122		-1.5299		0.8660		H		1		UNL1		0.1835
39		H		5.9343		-0.3291		2.1733		H		1		UNL1		0.1423
40		H		3.2501		1.1935		-0.8736		H		1		UNL1		0.1509
41		H		3.5313		3.1737		-2.3292		H		1		UNL1		0.1414
42		H		1.9280		5.0601		-2.1998		H		1		UNL1		0.1380
43		H		-0.0727		6.0768		-1.2254		H		1		UNL1		0.1368
44		H		-2.0066		5.9779		0.3148		H		1		UNL1		0.1374
45		H		-2.3626		3.9597		1.7349		H		1		UNL1		0.1373
46		H		-0.8008		2.0720		1.6312		H		1		UNL1		0.1601
47		H		-0.2419		0.2982		-1.0262		H		1		UNL1		0.1638
48		H		-0.4190		-1.0032		-2.2381		H		1		UNL1		0.1856
49		H		-2.7405		-1.2528		-1.5018		H		1		UNL1		0.1346
50		H		-2.5229		-0.0183		-0.2425		H		1		UNL1		0.1320
51		H		-3.0785		-2.9894		0.2640		H		1		UNL1		0.1616
52		H		-2.8633		-1.7677		1.5165		H		1		UNL1		0.1572
53		H		-5.1308		-2.9779		-1.1739		H		1		UNL1		0.1286
54		H		-7.5236		-2.3738		-1.3542		H		1		UNL1		0.1309
55		H		-8.4898		-0.6386		0.1447		H		1		UNL1		0.1294
56		H		-7.0372		0.4820		1.8254		H		1		UNL1		0.1286
57		H		-4.6440		-0.1256		2.0000		H		1		UNL1		0.1225
58		H		3.0575		-3.6905		-1.9622		H		1		UNL1		0.3562
@<TRIPOS>BOND
1		29		28		2
2		41		9		1
3		48		18		1
4		42		10		1
5		58		30		1
6		28		30		ar
7		28		17		ar
8		9		10		ar
9		9		8		ar
10		10		11		ar
11		49		20		1
12		30		31		ar
13		54		24		1
14		43		12		1
15		18		47		1
16		18		17		1
17		18		19		1
18		53		23		1
19		17		5		ar
20		40		8		1
21		8		7		ar
22		11		12		ar
23		11		16		ar
24		24		23		ar
25		24		25		ar
26		12		13		ar
27		23		22		ar
28		20		19		1
29		20		50		1
30		20		21		1
31		31		32		2
32		31		4		ar
33		7		16		ar
34		7		6		1
35		55		25		1
36		16		15		ar
37		5		4		ar
38		5		6		1
39		25		26		ar
40		13		44		1
41		13		14		ar
42		51		21		1
43		22		21		1
44		22		27		ar
45		21		52		1
46		4		2		1
47		37		3		1
48		38		3		1
49		15		14		ar
50		15		46		1
51		14		45		1
52		26		27		ar
53		26		56		1
54		27		57		1
55		3		2		1
56		3		39		1
57		2		36		1
58		2		1		1
59		35		1		1
60		1		33		1
61		1		34		1

