@<TRIPOS>MOLECULE
SGF-2005-CPB-886-8B
 45 47 0 0 0
SMALL
MULLIKEN_CHARGES
****
Gaussian 16 #p B3LYP/6-31G* opt
@<TRIPOS>ATOM
1		C		4.5367		3.6528		0.3513		C.3		1		UNL1		-0.4638
2		C		3.5350		3.0424		-0.6264		C.3		1		UNL1		-0.0244
3		O		3.2797		1.6580		-0.3898		O.3		1		UNL1		-0.4625
4		C		2.4833		1.4075		0.7490		C.3		1		UNL1		0.0787
5		N		2.0729		0.0120		0.7009		N.ar		1		UNL1		-0.5264
6		C		1.1974		-0.4625		-0.2929		C.ar		1		UNL1		0.0355
7		S		0.4455		0.7975		-1.3357		S.3		1		UNL1		0.1849
8		C		-1.2922		0.7104		-0.8820		C.ar		1		UNL1		-0.0999
9		C		-2.2145		1.0936		-1.8943		C.ar		1		UNL1		-0.1613
10		C		-3.5620		1.1277		-1.6239		C.ar		1		UNL1		-0.1822
11		C		-4.0657		0.7704		-0.3450		C.ar		1		UNL1		0.1332
12		C		-5.4525		0.7849		-0.0407		C.ar		1		UNL1		-0.1893
13		C		-5.9023		0.4307		1.2114		C.ar		1		UNL1		-0.1344
14		C		-4.9823		0.0446		2.2173		C.ar		1		UNL1		-0.1339
15		C		-3.6315		0.0186		1.9537		C.ar		1		UNL1		-0.1894
16		C		-3.1348		0.3780		0.6711		C.ar		1		UNL1		0.1465
17		C		-1.7462		0.3703		0.3752		C.ar		1		UNL1		-0.2139
18		C		0.9499		-1.7893		-0.4761		C.ar		1		UNL1		0.0508
19		C		0.0769		-2.3880		-1.5522		C.3		1		UNL1		-0.3252
20		C		0.8940		-2.8776		-2.7620		C.3		1		UNL1		-0.4481
21		C		1.6132		-2.7590		0.4078		C.ar		1		UNL1		0.6081
22		O		1.4736		-3.9728		0.3498		O.2		1		UNL1		-0.5037
23		N		2.4585		-2.1935		1.3664		N.ar		1		UNL1		-0.7010
24		C		2.7740		-0.8628		1.5486		C.ar		1		UNL1		0.7923
25		O		3.5734		-0.4914		2.3912		O.2		1		UNL1		-0.5088
26		H		5.4679		3.0771		0.3525		H		1		UNL1		0.1682
27		H		4.1496		3.6796		1.3757		H		1		UNL1		0.1541
28		H		4.7667		4.6834		0.0567		H		1		UNL1		0.1490
29		H		2.5856		3.6017		-0.6132		H		1		UNL1		0.1324
30		H		3.9287		3.0819		-1.6463		H		1		UNL1		0.1552
31		H		3.0390		1.5296		1.6797		H		1		UNL1		0.1943
32		H		1.5949		2.0501		0.7489		H		1		UNL1		0.1595
33		H		-1.8474		1.3501		-2.8841		H		1		UNL1		0.1485
34		H		-4.2630		1.4191		-2.4024		H		1		UNL1		0.1392
35		H		-6.1552		1.0813		-0.8159		H		1		UNL1		0.1342
36		H		-6.9658		0.4457		1.4332		H		1		UNL1		0.1352
37		H		-5.3490		-0.2335		3.2016		H		1		UNL1		0.1361
38		H		-2.9251		-0.2791		2.7248		H		1		UNL1		0.1354
39		H		-1.0498		0.0829		1.1578		H		1		UNL1		0.1430
40		H		-0.6786		-1.6719		-1.8788		H		1		UNL1		0.1611
41		H		-0.4495		-3.2421		-1.1136		H		1		UNL1		0.1706
42		H		1.4256		-2.0475		-3.2399		H		1		UNL1		0.1519
43		H		1.6268		-3.6297		-2.4544		H		1		UNL1		0.1683
44		H		0.2324		-3.3336		-3.5070		H		1		UNL1		0.1459
45		H		2.9462		-2.8409		1.9756		H		1		UNL1		0.3560
@<TRIPOS>BOND
1		44		20		1
2		42		20		1
3		33		9		1
4		20		43		1
5		20		19		1
6		34		10		1
7		9		10		ar
8		9		8		ar
9		40		19		1
10		30		2		1
11		10		11		ar
12		19		41		1
13		19		18		1
14		7		8		1
15		7		6		1
16		8		17		ar
17		35		12		1
18		2		29		1
19		2		3		1
20		2		1		1
21		18		6		ar
22		18		21		ar
23		3		4		1
24		11		12		ar
25		11		16		ar
26		6		5		ar
27		12		13		ar
28		28		1		1
29		22		21		2
30		1		26		1
31		1		27		1
32		17		16		ar
33		17		39		1
34		21		23		ar
35		16		15		ar
36		5		4		1
37		5		24		ar
38		32		4		1
39		4		31		1
40		13		36		1
41		13		14		ar
42		23		24		ar
43		23		45		1
44		24		25		2
45		15		14		ar
46		15		38		1
47		14		37		1

