@<TRIPOS>MOLECULE
SGF-2005-CPB-886-7Q
 52 55 0 0 0
SMALL
MULLIKEN_CHARGES
****
Gaussian 16 #p B3LYP/6-31G* opt
@<TRIPOS>ATOM
1		C		2.8573		3.5348		2.1681		C.3		1		UNL1		-0.4513
2		C		1.4097		3.0330		2.3140		C.3		1		UNL1		-0.3225
3		C		0.7542		2.7245		0.9870		C.ar		1		UNL1		0.0354
4		C		0.6501		1.4940		0.4061		C.ar		1		UNL1		0.0235
5		S		1.2677		0.0563		1.2850		S.3		1		UNL1		0.1767
6		C		2.5958		-0.5261		0.2087		C.ar		1		UNL1		-0.1855
7		C		3.3417		0.3558		-0.5480		C.ar		1		UNL1		-0.1555
8		C		4.4022		-0.1096		-1.3583		C.ar		1		UNL1		-0.1256
9		C		4.7223		-1.4461		-1.3853		C.ar		1		UNL1		-0.1901
10		C		3.9869		-2.3815		-0.6110		C.ar		1		UNL1		0.1459
11		C		4.3076		-3.7655		-0.6256		C.ar		1		UNL1		-0.1904
12		C		3.5868		-4.6709		0.1179		C.ar		1		UNL1		-0.1301
13		C		2.5016		-4.2282		0.9095		C.ar		1		UNL1		-0.1334
14		C		2.1618		-2.8940		0.9486		C.ar		1		UNL1		-0.2060
15		C		2.8901		-1.9289		0.1998		C.ar		1		UNL1		0.1196
16		N		0.0424		1.3001		-0.8466		N.ar		1		UNL1		-0.5274
17		C		-0.3113		-0.0136		-1.4273		C.3		1		UNL1		0.0855
18		O		-1.6788		-0.2973		-1.3417		O.3		1		UNL1		-0.4557
19		C		-2.1537		-0.6627		-0.0513		C.3		1		UNL1		-0.0878
20		C		-3.6534		-0.8454		-0.1077		C.ar		1		UNL1		0.1182
21		C		-4.4329		-0.1335		-1.0270		C.ar		1		UNL1		-0.1648
22		C		-5.8208		-0.2825		-1.0308		C.ar		1		UNL1		-0.1351
23		C		-6.4520		-1.1321		-0.1210		C.ar		1		UNL1		-0.1948
24		C		-5.6585		-1.8279		0.7829		C.ar		1		UNL1		0.3830
25		F		-6.2486		-2.6616		1.6678		F		1		UNL1		-0.3013
26		C		-4.2750		-1.7051		0.8042		C.ar		1		UNL1		-0.2526
27		C		-0.3950		2.3882		-1.6240		C.ar		1		UNL1		0.7960
28		O		-0.8571		2.2629		-2.7434		O.2		1		UNL1		-0.5015
29		N		-0.2660		3.6189		-1.0093		N.ar		1		UNL1		-0.7016
30		C		0.2387		3.8973		0.2612		C.ar		1		UNL1		0.6093
31		O		0.2627		5.0460		0.6803		O.2		1		UNL1		-0.5019
32		H		2.8956		4.4281		1.5372		H		1		UNL1		0.1677
33		H		3.2693		3.7961		3.1492		H		1		UNL1		0.1506
34		H		3.5004		2.7651		1.7267		H		1		UNL1		0.1485
35		H		0.8136		3.8171		2.7918		H		1		UNL1		0.1740
36		H		1.3867		2.1573		2.9655		H		1		UNL1		0.1620
37		H		3.1206		1.4179		-0.5213		H		1		UNL1		0.1525
38		H		4.9677		0.6045		-1.9499		H		1		UNL1		0.1437
39		H		5.5440		-1.8061		-1.9989		H		1		UNL1		0.1402
40		H		5.1400		-4.0966		-1.2417		H		1		UNL1		0.1386
41		H		3.8449		-5.7259		0.0963		H		1		UNL1		0.1396
42		H		1.9293		-4.9472		1.4889		H		1		UNL1		0.1398
43		H		1.3218		-2.5740		1.5568		H		1		UNL1		0.1560
44		H		-0.0864		0.0389		-2.4901		H		1		UNL1		0.1967
45		H		0.2943		-0.7780		-0.9415		H		1		UNL1		0.1728
46		H		-1.6640		-1.5879		0.2887		H		1		UNL1		0.1426
47		H		-1.9034		0.1218		0.6804		H		1		UNL1		0.1546
48		H		-3.9451		0.5206		-1.7409		H		1		UNL1		0.1635
49		H		-6.4195		0.2686		-1.7507		H		1		UNL1		0.1408
50		H		-7.5287		-1.2644		-0.1056		H		1		UNL1		0.1450
51		H		-3.7031		-2.2819		1.5254		H		1		UNL1		0.1362
52		H		-0.5960		4.4105		-1.5505		H		1		UNL1		0.3564
@<TRIPOS>BOND
1		28		27		2
2		44		17		1
3		39		9		1
4		38		8		1
5		49		22		1
6		48		21		1
7		27		29		ar
8		27		16		ar
9		52		29		1
10		17		18		1
11		17		45		1
12		17		16		1
13		9		8		ar
14		9		10		ar
15		8		7		ar
16		18		19		1
17		40		11		1
18		22		21		ar
19		22		23		ar
20		21		20		ar
21		29		30		ar
22		16		4		ar
23		11		10		ar
24		11		12		ar
25		10		15		ar
26		7		37		1
27		7		6		ar
28		23		50		1
29		23		24		ar
30		20		19		1
31		20		26		ar
32		19		46		1
33		19		47		1
34		41		12		1
35		12		13		ar
36		15		6		ar
37		15		14		ar
38		6		5		1
39		30		31		2
40		30		3		ar
41		4		3		ar
42		4		5		1
43		24		26		ar
44		24		25		1
45		26		51		1
46		13		14		ar
47		13		42		1
48		14		43		1
49		3		2		1
50		32		1		1
51		34		1		1
52		1		2		1
53		1		33		1
54		2		35		1
55		2		36		1

