@<TRIPOS>MOLECULE
SGF-2005-CPB-886-8D
 45 47 0 0 0
SMALL
MULLIKEN_CHARGES
****
Gaussian 16 #p B3LYP/6-31G* opt
@<TRIPOS>ATOM
1		C		3.4686		3.7125		-0.8418		C.3		1		UNL1		-0.2033
2		O		3.2629		2.3316		-0.5980		O.3		1		UNL1		-0.4506
3		C		2.5027		2.1058		0.5692		C.3		1		UNL1		0.0797
4		N		2.2686		0.6752		0.6773		N.ar		1		UNL1		-0.5261
5		C		1.4553		-0.0115		-0.2446		C.ar		1		UNL1		0.0266
6		S		0.5576		1.0504		-1.3937		S.3		1		UNL1		0.1792
7		C		-1.1590		0.7760		-0.9341		C.ar		1		UNL1		-0.0956
8		C		-2.1060		0.7932		-1.9935		C.ar		1		UNL1		-0.1590
9		C		-3.4486		0.6705		-1.7217		C.ar		1		UNL1		-0.1821
10		C		-3.9184		0.5082		-0.3916		C.ar		1		UNL1		0.1338
11		C		-5.2970		0.3662		-0.0823		C.ar		1		UNL1		-0.1888
12		C		-5.7140		0.2108		1.2204		C.ar		1		UNL1		-0.1339
13		C		-4.7682		0.1900		2.2755		C.ar		1		UNL1		-0.1338
14		C		-3.4245		0.3236		2.0093		C.ar		1		UNL1		-0.1890
15		C		-2.9611		0.4849		0.6749		C.ar		1		UNL1		0.1461
16		C		-1.5826		0.6374		0.3718		C.ar		1		UNL1		-0.2150
17		C		1.3754		-1.3746		-0.2871		C.ar		1		UNL1		0.0617
18		C		0.5592		-2.1615		-1.3032		C.3		1		UNL1		-0.1442
19		C		-0.5433		-3.0115		-0.6394		C.3		1		UNL1		-0.4591
20		C		1.4670		-3.0224		-2.2064		C.3		1		UNL1		-0.4566
21		C		2.1512		-2.1446		0.6992		C.ar		1		UNL1		0.6074
22		O		2.1758		-3.3644		0.8008		O.2		1		UNL1		-0.5030
23		N		2.9187		-1.3728		1.5775		N.ar		1		UNL1		-0.6990
24		C		3.0725		-0.0045		1.6076		C.ar		1		UNL1		0.7929
25		O		3.8202		0.5541		2.3925		O.2		1		UNL1		-0.5089
26		H		4.0187		4.1908		-0.0173		H		1		UNL1		0.1437
27		H		2.5152		4.2434		-0.9866		H		1		UNL1		0.1428
28		H		4.0612		3.7855		-1.7560		H		1		UNL1		0.1703
29		H		3.0483		2.4038		1.4680		H		1		UNL1		0.1924
30		H		1.5422		2.6316		0.5166		H		1		UNL1		0.1614
31		H		-1.7604		0.8945		-3.0182		H		1		UNL1		0.1493
32		H		-4.1694		0.6822		-2.5358		H		1		UNL1		0.1397
33		H		-6.0198		0.3822		-0.8947		H		1		UNL1		0.1349
34		H		-6.7715		0.1032		1.4452		H		1		UNL1		0.1359
35		H		-5.1096		0.0663		3.2995		H		1		UNL1		0.1367
36		H		-2.6979		0.3065		2.8181		H		1		UNL1		0.1358
37		H		-0.8664		0.6351		1.1888		H		1		UNL1		0.1433
38		H		0.0641		-1.4335		-1.9496		H		1		UNL1		0.1516
39		H		-0.1102		-3.7840		0.0001		H		1		UNL1		0.1798
40		H		-1.2132		-2.3901		-0.0353		H		1		UNL1		0.1457
41		H		-1.1467		-3.5003		-1.4134		H		1		UNL1		0.1385
42		H		0.8593		-3.5195		-2.9718		H		1		UNL1		0.1395
43		H		1.9866		-3.7897		-1.6279		H		1		UNL1		0.1806
44		H		2.2133		-2.4043		-2.7185		H		1		UNL1		0.1427
45		H		3.4772		-1.8877		2.2491		H		1		UNL1		0.3560
@<TRIPOS>BOND
1		31		8		1
2		42		20		1
3		44		20		1
4		32		9		1
5		20		43		1
6		20		18		1
7		8		9		ar
8		8		7		ar
9		38		18		1
10		28		1		1
11		9		10		ar
12		41		19		1
13		6		7		1
14		6		5		1
15		18		19		1
16		18		17		1
17		27		1		1
18		7		16		ar
19		33		11		1
20		1		2		1
21		1		26		1
22		19		40		1
23		19		39		1
24		2		3		1
25		10		11		ar
26		10		15		ar
27		17		5		ar
28		17		21		ar
29		5		4		ar
30		11		12		ar
31		16		15		ar
32		16		37		1
33		30		3		1
34		3		4		1
35		3		29		1
36		15		14		ar
37		4		24		ar
38		21		22		2
39		21		23		ar
40		12		34		1
41		12		13		ar
42		23		24		ar
43		23		45		1
44		24		25		2
45		14		13		ar
46		14		36		1
47		13		35		1

