@<TRIPOS>MOLECULE
SGF-2005-APALS-457-5D
 50 53 0 0 0
SMALL
MULLIKEN_CHARGES
****
Gaussian 16 #p B3LYP/6-31G* opt
@<TRIPOS>ATOM
1		C		4.6969		-3.3593		0.5278		C.3		1		UNL1		-0.4503
2		C		4.0021		-2.0504		0.9502		C.3		1		UNL1		-0.3311
3		C		2.5411		-2.0402		0.5826		C.ar		1		UNL1		0.0885
4		C		1.9746		-1.4400		-0.5168		C.ar		1		UNL1		-0.0147
5		S		2.9018		-0.4791		-1.7397		S.3		1		UNL1		0.1506
6		C		3.5507		0.9246		-0.8157		C.ar		1		UNL1		-0.1764
7		C		4.9241		1.0816		-0.7818		C.ar		1		UNL1		-0.1560
8		C		5.5131		2.1996		-0.1470		C.ar		1		UNL1		-0.1286
9		C		4.7193		3.1390		0.4665		C.ar		1		UNL1		-0.1897
10		C		3.3036		3.0248		0.4421		C.ar		1		UNL1		0.1477
11		C		2.4757		4.0034		1.0548		C.ar		1		UNL1		-0.1935
12		C		1.1043		3.9099		0.9928		C.ar		1		UNL1		-0.1317
13		C		0.4987		2.8357		0.3000		C.ar		1		UNL1		-0.1489
14		C		1.2718		1.8627		-0.2961		C.ar		1		UNL1		-0.2210
15		C		2.6900		1.9132		-0.2319		C.ar		1		UNL1		0.1289
16		N		0.6457		-1.5724		-0.8674		N.ar		1		UNL1		-0.4624
17		C		-0.1273		-2.2405		-0.0756		C.ar		1		UNL1		0.3371
18		S		-1.8603		-2.5091		-0.4285		S.3		1		UNL1		0.1577
19		C		-2.1340		-1.2592		-1.7508		C.3		1		UNL1		-0.5520
20		C		-2.5873		0.0989		-1.2020		C.2		1		UNL1		0.4312
21		O		-1.8354		1.0520		-1.3100		O.2		1		UNL1		-0.4203
22		C		-3.9309		0.2162		-0.5612		C.ar		1		UNL1		0.0165
23		C		-4.9197		-0.7761		-0.7031		C.ar		1		UNL1		-0.1799
24		C		-6.1840		-0.6545		-0.1392		C.ar		1		UNL1		-0.1993
25		C		-6.4669		0.4905		0.5997		C.ar		1		UNL1		0.4056
26		F		-7.6797		0.6267		1.1559		F		1		UNL1		-0.2807
27		C		-5.5317		1.5005		0.7847		C.ar		1		UNL1		-0.2757
28		C		-4.2810		1.3499		0.1992		C.ar		1		UNL1		0.3647
29		F		-3.3977		2.3329		0.4074		F		1		UNL1		-0.2579
30		N		0.3120		-2.8176		1.0749		N.ar		1		UNL1		-0.6519
31		C		1.6665		-2.7968		1.4801		C.ar		1		UNL1		0.5885
32		O		1.9976		-3.3796		2.5040		O.2		1		UNL1		-0.5158
33		H		5.7494		-3.3450		0.8329		H		1		UNL1		0.1454
34		H		4.6591		-3.4914		-0.5591		H		1		UNL1		0.1512
35		H		4.2192		-4.2223		1.0014		H		1		UNL1		0.1667
36		H		4.0766		-1.9476		2.0384		H		1		UNL1		0.1681
37		H		4.5122		-1.1973		0.5037		H		1		UNL1		0.1639
38		H		5.5573		0.3291		-1.2422		H		1		UNL1		0.1482
39		H		6.5950		2.2973		-0.1342		H		1		UNL1		0.1341
40		H		5.1645		3.9915		0.9741		H		1		UNL1		0.1331
41		H		2.9511		4.8353		1.5695		H		1		UNL1		0.1280
42		H		0.4840		4.6679		1.4638		H		1		UNL1		0.1288
43		H		-0.5826		2.7718		0.2244		H		1		UNL1		0.1554
44		H		0.7862		1.0613		-0.8404		H		1		UNL1		0.1896
45		H		-1.1775		-1.1144		-2.2562		H		1		UNL1		0.2605
46		H		-2.8544		-1.7005		-2.4444		H		1		UNL1		0.2012
47		H		-4.7016		-1.6683		-1.2793		H		1		UNL1		0.1520
48		H		-6.9411		-1.4208		-0.2605		H		1		UNL1		0.1630
49		H		-5.7631		2.3831		1.3688		H		1		UNL1		0.1759
50		H		-0.3208		-3.3042		1.7022		H		1		UNL1		0.3560
@<TRIPOS>BOND
1		46		19		1
2		45		19		1
3		19		20		1
4		19		18		1
5		5		6		1
6		5		4		1
7		21		20		2
8		47		23		1
9		38		7		1
10		20		22		1
11		16		4		ar
12		16		17		ar
13		44		14		1
14		6		7		ar
15		6		15		ar
16		7		8		ar
17		23		22		ar
18		23		24		ar
19		22		28		ar
20		34		1		1
21		4		3		ar
22		18		17		1
23		14		15		ar
24		14		13		ar
25		48		24		1
26		15		10		ar
27		8		39		1
28		8		9		ar
29		24		25		ar
30		17		30		ar
31		28		29		1
32		28		27		ar
33		43		13		1
34		13		12		ar
35		10		9		ar
36		10		11		ar
37		9		40		1
38		37		2		1
39		1		33		1
40		1		2		1
41		1		35		1
42		3		2		1
43		3		31		ar
44		25		27		ar
45		25		26		1
46		27		49		1
47		2		36		1
48		12		11		ar
49		12		42		1
50		11		41		1
51		30		31		ar
52		30		50		1
53		31		32		2

