@<TRIPOS>MOLECULE
SGF-2005-CPB-886-8C
 52 55 0 0 0
SMALL
MULLIKEN_CHARGES
****
Gaussian 16 #p B3LYP/6-31G* opt
@<TRIPOS>ATOM
1		C		4.4194		-0.8144		2.7971		C.3		1		UNL1		-0.4467
2		C		3.6943		-1.6426		1.7212		C.3		1		UNL1		-0.3244
3		C		3.3327		-0.8307		0.5000		C.ar		1		UNL1		0.0323
4		C		2.1260		-0.2434		0.2569		C.ar		1		UNL1		0.0458
5		S		0.8184		-0.3559		1.4827		S.3		1		UNL1		0.1766
6		C		-0.4127		-1.3720		0.6489		C.ar		1		UNL1		-0.1214
7		C		-0.0553		-2.6008		0.0306		C.ar		1		UNL1		-0.1433
8		C		-1.0282		-3.3978		-0.5238		C.ar		1		UNL1		-0.1816
9		C		-2.4006		-3.0285		-0.4771		C.ar		1		UNL1		0.1361
10		C		-3.4259		-3.8374		-1.0334		C.ar		1		UNL1		-0.1906
11		C		-4.7441		-3.4425		-0.9733		C.ar		1		UNL1		-0.1323
12		C		-5.0963		-2.2171		-0.3562		C.ar		1		UNL1		-0.1357
13		C		-4.1256		-1.4101		0.1938		C.ar		1		UNL1		-0.1890
14		C		-2.7580		-1.7928		0.1528		C.ar		1		UNL1		0.1365
15		C		-1.7339		-0.9762		0.7038		C.ar		1		UNL1		-0.2253
16		N		1.8699		0.4935		-0.9135		N.ar		1		UNL1		-0.5223
17		C		0.7045		1.3504		-1.0647		C.3		1		UNL1		0.0833
18		O		0.9776		2.5764		-0.4104		O.3		1		UNL1		-0.4643
19		C		0.0214		3.5910		-0.7041		C.3		1		UNL1		-0.1105
20		C		-1.3347		3.3626		-0.0610		C.ar		1		UNL1		0.1229
21		C		-1.4222		3.0743		1.3087		C.ar		1		UNL1		-0.1637
22		C		-2.6641		2.8909		1.9160		C.ar		1		UNL1		-0.1395
23		C		-3.8376		2.9949		1.1614		C.ar		1		UNL1		-0.1333
24		C		-3.7593		3.2784		-0.2024		C.ar		1		UNL1		-0.1267
25		C		-2.5128		3.4569		-0.8084		C.ar		1		UNL1		-0.1814
26		C		2.8538		0.6703		-1.9037		C.ar		1		UNL1		0.8005
27		O		2.6727		1.3141		-2.9223		O.2		1		UNL1		-0.5089
28		N		4.0529		0.0432		-1.6319		N.ar		1		UNL1		-0.7010
29		C		4.4128		-0.6682		-0.4863		C.ar		1		UNL1		0.6097
30		O		5.5420		-1.1242		-0.3718		O.2		1		UNL1		-0.5036
31		H		3.7792		-0.0094		3.1754		H		1		UNL1		0.1490
32		H		5.3325		-0.3688		2.3907		H		1		UNL1		0.1687
33		H		4.7000		-1.4518		3.6431		H		1		UNL1		0.1468
34		H		4.3587		-2.4496		1.3954		H		1		UNL1		0.1676
35		H		2.7957		-2.0946		2.1481		H		1		UNL1		0.1637
36		H		0.9871		-2.9017		-0.0027		H		1		UNL1		0.1501
37		H		-0.7538		-4.3357		-1.0009		H		1		UNL1		0.1405
38		H		-3.1527		-4.7761		-1.5095		H		1		UNL1		0.1355
39		H		-5.5203		-4.0700		-1.4023		H		1		UNL1		0.1357
40		H		-6.1396		-1.9155		-0.3196		H		1		UNL1		0.1348
41		H		-4.3894		-0.4647		0.6613		H		1		UNL1		0.1408
42		H		-2.0045		-0.0283		1.1617		H		1		UNL1		0.1671
43		H		0.5653		1.5083		-2.1373		H		1		UNL1		0.1785
44		H		-0.1716		0.8570		-0.6449		H		1		UNL1		0.1735
45		H		-0.0908		3.7048		-1.7937		H		1		UNL1		0.1418
46		H		0.4742		4.5116		-0.3201		H		1		UNL1		0.1669
47		H		-0.5095		2.9868		1.8913		H		1		UNL1		0.1522
48		H		-2.7188		2.6749		2.9800		H		1		UNL1		0.1358
49		H		-4.8057		2.8610		1.6370		H		1		UNL1		0.1326
50		H		-4.6656		3.3575		-0.7969		H		1		UNL1		0.1340
51		H		-2.4566		3.6730		-1.8733		H		1		UNL1		0.1310
52		H		4.7745		0.1671		-2.3333		H		1		UNL1		0.3554
@<TRIPOS>BOND
1		27		26		2
2		52		28		1
3		43		17		1
4		26		28		ar
5		26		16		ar
6		51		25		1
7		45		19		1
8		28		29		ar
9		38		10		1
10		39		11		1
11		17		16		1
12		17		44		1
13		17		18		1
14		10		11		ar
15		10		9		ar
16		37		8		1
17		11		12		ar
18		16		4		ar
19		25		24		ar
20		25		20		ar
21		50		24		1
22		19		18		1
23		19		46		1
24		19		20		1
25		8		9		ar
26		8		7		ar
27		29		30		2
28		29		3		ar
29		9		14		ar
30		12		40		1
31		12		13		ar
32		24		23		ar
33		20		21		ar
34		36		7		1
35		7		6		ar
36		14		13		ar
37		14		15		ar
38		13		41		1
39		4		3		ar
40		4		5		1
41		3		2		1
42		6		15		ar
43		6		5		1
44		15		42		1
45		23		49		1
46		23		22		ar
47		21		47		1
48		21		22		ar
49		34		2		1
50		2		35		1
51		2		1		1
52		22		48		1
53		32		1		1
54		1		31		1
55		1		33		1

