@<TRIPOS>MOLECULE
SGF-2005-CPB-886-7C
 42 44 0 0 0
SMALL
MULLIKEN_CHARGES
****
Gaussian 16 #p B3LYP/6-31G* opt
@<TRIPOS>ATOM
1		C		-2.8702		-2.0063		2.6669		C.3		1		UNL1		-0.4494
2		C		-1.8160		-2.2475		1.5708		C.3		1		UNL1		-0.3251
3		C		-1.8900		-1.2325		0.4542		C.ar		1		UNL1		0.0287
4		C		-1.1423		-0.0954		0.3514		C.ar		1		UNL1		0.0564
5		S		0.0080		0.3037		1.6770		S.3		1		UNL1		0.1828
6		C		1.6269		0.5204		0.9083		C.ar		1		UNL1		-0.1955
7		C		2.2753		1.7059		1.2081		C.ar		1		UNL1		-0.1587
8		C		3.5953		1.9491		0.7655		C.ar		1		UNL1		-0.1269
9		C		4.2479		1.0092		0.0047		C.ar		1		UNL1		-0.1878
10		C		3.6242		-0.2247		-0.3197		C.ar		1		UNL1		0.1467
11		C		4.3040		-1.2075		-1.0880		C.ar		1		UNL1		-0.1911
12		C		3.7168		-2.4188		-1.3702		C.ar		1		UNL1		-0.1296
13		C		2.4190		-2.7008		-0.8851		C.ar		1		UNL1		-0.1401
14		C		1.7274		-1.7680		-0.1438		C.ar		1		UNL1		-0.1930
15		C		2.2945		-0.5003		0.1535		C.ar		1		UNL1		0.1307
16		N		-1.2797		0.7991		-0.7241		N.ar		1		UNL1		-0.5242
17		C		-0.8528		2.1871		-0.6367		C.3		1		UNL1		0.0786
18		O		-1.7946		2.8785		0.1564		O.3		1		UNL1		-0.4541
19		C		-1.5249		4.2664		0.2157		C.3		1		UNL1		-0.2006
20		C		-2.1679		0.5394		-1.7882		C.ar		1		UNL1		0.7995
21		O		-2.3129		1.2897		-2.7369		O.2		1		UNL1		-0.5076
22		N		-2.8686		-0.6424		-1.6710		N.ar		1		UNL1		-0.6973
23		C		-2.8704		-1.5359		-0.5985		C.ar		1		UNL1		0.6087
24		O		-3.6170		-2.5048		-0.6044		O.2		1		UNL1		-0.5045
25		H		-3.8786		-2.0288		2.2425		H		1		UNL1		0.1689
26		H		-2.7214		-1.0363		3.1545		H		1		UNL1		0.1516
27		H		-2.8068		-2.7863		3.4340		H		1		UNL1		0.1470
28		H		-1.9898		-3.2355		1.1322		H		1		UNL1		0.1679
29		H		-0.8180		-2.2444		2.0172		H		1		UNL1		0.1629
30		H		1.7574		2.4627		1.7902		H		1		UNL1		0.1549
31		H		4.0788		2.8879		1.0195		H		1		UNL1		0.1411
32		H		5.2574		1.1929		-0.3545		H		1		UNL1		0.1405
33		H		5.3063		-0.9832		-1.4448		H		1		UNL1		0.1366
34		H		4.2487		-3.1622		-1.9574		H		1		UNL1		0.1388
35		H		1.9630		-3.6640		-1.0965		H		1		UNL1		0.1412
36		H		0.7360		-2.0034		0.2209		H		1		UNL1		0.1608
37		H		-0.8336		2.5753		-1.6586		H		1		UNL1		0.1835
38		H		0.1472		2.2422		-0.2031		H		1		UNL1		0.1579
39		H		-2.3040		4.7130		0.8374		H		1		UNL1		0.1687
40		H		-0.5430		4.4741		0.6705		H		1		UNL1		0.1316
41		H		-1.5524		4.7288		-0.7830		H		1		UNL1		0.1440
42		H		-3.5223		-0.8345		-2.4218		H		1		UNL1		0.3555
@<TRIPOS>BOND
1		21		20		2
2		42		22		1
3		34		12		1
4		20		22		ar
5		20		16		ar
6		22		23		ar
7		37		17		1
8		33		11		1
9		12		11		ar
10		12		13		ar
11		35		13		1
12		11		10		ar
13		13		14		ar
14		41		19		1
15		16		17		1
16		16		4		ar
17		17		38		1
18		17		18		1
19		24		23		2
20		23		3		ar
21		32		9		1
22		10		9		ar
23		10		15		ar
24		14		15		ar
25		14		36		1
26		9		8		ar
27		15		6		ar
28		18		19		1
29		19		40		1
30		19		39		1
31		4		3		ar
32		4		5		1
33		3		2		1
34		8		31		1
35		8		7		ar
36		6		7		ar
37		6		5		1
38		28		2		1
39		7		30		1
40		2		29		1
41		2		1		1
42		25		1		1
43		1		26		1
44		1		27		1

