@<TRIPOS>MOLECULE
SYL-2019-jmc-11603-3-21
 54 58 0 0 0
SMALL
MULLIKEN_CHARGES

@<TRIPOS>ATOM
1		C		5.6940		-1.8393		0.2429		C.ar		1		UNL1		0.1782
2		C		4.3165		-2.0416		0.3371		C.ar		1		UNL1		-0.2395
3		C		3.3848		-1.1623		-0.2380		C.ar		1		UNL1		0.0876
4		C		3.8661		-0.0433		-0.9366		C.ar		1		UNL1		-0.1850
5		C		5.2320		0.1890		-1.0448		C.ar		1		UNL1		-0.1385
6		C		6.1474		-0.6998		-0.4601		C.ar		1		UNL1		0.0857
7		C		1.2418		-1.6232		1.0679		C.ar		1		UNL1		0.1369
8		C		-0.1400		-1.8504		1.0407		C.ar		1		UNL1		-0.2169
9		C		-0.8356		-1.8756		-0.1614		C.ar		1		UNL1		0.3693
10		C		-0.1875		-1.6750		-1.3739		C.ar		1		UNL1		-0.1545
11		C		1.1848		-1.4430		-1.3567		C.ar		1		UNL1		-0.1824
12		C		1.9185		-1.4193		-0.1582		C.ar		1		UNL1		0.0227
13		C		-3.1131		-1.1926		-0.1066		C.ar		1		UNL1		0.5647
14		C		-4.4668		-1.5426		-0.1227		C.ar		1		UNL1		-0.2320
15		C		-5.3942		-0.4788		-0.0768		C.ar		1		UNL1		0.3253
16		N		-5.0137		0.8114		-0.0192		N.ar		1		UNL1		-0.5838
17		C		-3.6920		1.0109		-0.0083		C.ar		1		UNL1		0.6882
18		N		-2.7243		0.0689		-0.0495		N.ar		1		UNL1		-0.5521
19		C		0.3253		3.0749		0.1478		C.ar		1		UNL1		-0.1617
20		C		-0.8469		2.3313		0.1049		C.ar		1		UNL1		-0.1651
21		C		-2.0926		2.9878		0.0892		C.ar		1		UNL1		0.3820
22		C		-2.1176		4.3983		0.1190		C.ar		1		UNL1		-0.2049
23		C		-0.9450		5.1334		0.1606		C.ar		1		UNL1		-0.1410
24		C		0.2997		4.4789		0.1749		C.ar		1		UNL1		0.1319
25		C		7.5533		-0.4484		-0.5841		C.1		1		UNL1		0.2301
26		N		8.6969		-0.2551		-0.6810		N.1		1		UNL1		-0.4832
27		O		-2.2010		-2.1912		-0.1498		O.3		1		UNL1		-0.5667
28		N		-3.3274		2.3428		0.0502		N.pl3		1		UNL1		-0.7744
29		C		1.5174		5.2284		0.2148		C.1		1		UNL1		0.2244
30		N		2.5103		5.8357		0.2452		N.1		1		UNL1		-0.4855
31		S		-5.2442		-3.1035		-0.1939		S.2		1		UNL1		0.2780
32		C		-6.8081		-2.3193		-0.1614		C.ar		1		UNL1		-0.3432
33		C		-6.7493		-0.9616		-0.1007		C.ar		1		UNL1		-0.0971
34		C		1.9396		-1.5754		2.4101		C.3		1		UNL1		-0.5360
35		C		6.6694		-2.8079		0.8640		C.3		1		UNL1		-0.5350
36		H		3.9576		-2.9261		0.8554		H		1		UNL1		0.1385
37		H		3.1641		0.6542		-1.3841		H		1		UNL1		0.1501
38		H		5.6007		1.0605		-1.5763		H		1		UNL1		0.1662
39		H		-0.6858		-2.0010		1.9674		H		1		UNL1		0.1426
40		H		-0.7453		-1.7045		-2.3039		H		1		UNL1		0.1495
41		H		1.7100		-1.2954		-2.2959		H		1		UNL1		0.1485
42		H		1.2807		2.5592		0.1630		H		1		UNL1		0.1546
43		H		-0.8098		1.2525		0.0829		H		1		UNL1		0.1975
44		H		-3.0736		4.9167		0.1078		H		1		UNL1		0.1371
45		H		-0.9841		6.2177		0.1816		H		1		UNL1		0.1577
46		H		-4.1423		2.9430		0.0657		H		1		UNL1		0.3478
47		H		-7.6980		-2.9350		-0.1902		H		1		UNL1		0.1871
48		H		-7.6123		-0.3077		-0.0729		H		1		UNL1		0.1608
49		H		2.3734		-2.5468		2.6793		H		1		UNL1		0.1679
50		H		1.2309		-1.3099		3.2005		H		1		UNL1		0.1646
51		H		2.7535		-0.8451		2.4218		H		1		UNL1		0.1758
52		H		7.3527		-3.2224		0.1137		H		1		UNL1		0.1838
53		H		6.1449		-3.6386		1.3443		H		1		UNL1		0.1598
54		H		7.2930		-2.3146		1.6190		H		1		UNL1		0.1837
@<TRIPOS>BOND
1		40		10		1
2		41		11		1
3		38		5		1
4		37		4		1
5		10		11		ar
6		10		9		ar
7		11		12		ar
8		5		4		ar
9		5		6		ar
10		4		3		ar
11		26		25		3
12		25		6		1
13		6		1		ar
14		3		12		1
15		3		2		ar
16		31		32		ar
17		31		14		ar
18		47		32		1
19		9		27		1
20		9		8		ar
21		32		33		ar
22		12		7		ar
23		27		13		1
24		14		13		ar
25		14		15		ar
26		13		18		ar
27		33		15		ar
28		33		48		1
29		15		16		ar
30		18		17		ar
31		16		17		ar
32		17		28		1
33		28		46		1
34		28		21		1
35		43		20		1
36		21		20		ar
37		21		22		ar
38		20		19		ar
39		44		22		1
40		52		35		1
41		22		23		ar
42		19		42		1
43		19		24		ar
44		23		24		ar
45		23		45		1
46		24		29		1
47		29		30		3
48		1		2		ar
49		1		35		1
50		2		36		1
51		35		53		1
52		35		54		1
53		8		7		ar
54		8		39		1
55		7		34		1
56		34		51		1
57		34		49		1
58		34		50		1

