@<TRIPOS>MOLECULE
SYL-2019-BC-102974-3-17
 48 52 0 0 0
SMALL
MULLIKEN_CHARGES
****
Gaussian 16 #p B3LYP/6-31G* opt
@<TRIPOS>ATOM
1		N		8.6267		-4.3929		0.0632		N.1		1		UNL1		-0.4857
2		C		7.9411		-3.4528		0.1048		C.1		1		UNL1		0.2268
3		C		7.1001		-2.2966		0.1563		C.ar		1		UNL1		0.1309
4		C		5.7344		-2.3896		-0.1587		C.ar		1		UNL1		-0.1538
5		C		4.9057		-1.2755		-0.1137		C.ar		1		UNL1		-0.1627
6		C		5.4358		-0.0243		0.2541		C.ar		1		UNL1		0.3842
7		N		4.6975		1.1568		0.3322		N.pl3		1		UNL1		-0.7737
8		C		3.3681		1.4479		0.1042		C.ar		1		UNL1		0.6974
9		N		2.5344		0.4616		-0.2748		N.ar		1		UNL1		-0.5320
10		C		1.2677		0.7714		-0.4826		C.ar		1		UNL1		0.5270
11		O		0.5233		-0.2852		-0.9250		O.3		1		UNL1		-0.5297
12		C		-0.8393		-0.3472		-0.7136		C.ar		1		UNL1		0.2517
13		C		-1.6885		-0.5822		-1.7926		C.ar		1		UNL1		-0.1705
14		C		-3.0536		-0.7616		-1.5816		C.ar		1		UNL1		-0.1800
15		C		-3.6010		-0.7112		-0.2881		C.ar		1		UNL1		0.0977
16		C		-5.0559		-0.8954		-0.0646		C.ar		1		UNL1		0.0997
17		C		-5.7933		-1.8116		-0.8353		C.ar		1		UNL1		-0.1791
18		C		-7.1569		-1.9869		-0.6334		C.ar		1		UNL1		-0.1404
19		C		-7.8216		-1.2433		0.3558		C.ar		1		UNL1		0.1348
20		C		-9.2280		-1.4191		0.5687		C.1		1		UNL1		0.2382
21		N		-10.3699		-1.5608		0.7412		N.1		1		UNL1		-0.4733
22		C		-7.0972		-0.3258		1.1347		C.ar		1		UNL1		-0.1408
23		C		-5.7343		-0.1583		0.9221		C.ar		1		UNL1		-0.1778
24		C		-2.7360		-0.4810		0.7953		C.ar		1		UNL1		-0.2575
25		C		-1.3791		-0.3132		0.5759		C.ar		1		UNL1		0.3877
26		F		-0.5515		-0.1131		1.6173		F		1		UNL1		-0.2820
27		C		0.7979		2.0821		-0.3265		C.ar		1		UNL1		-0.2130
28		S		-0.7725		2.8232		-0.5816		S.2		1		UNL1		0.2710
29		C		-0.1167		4.3836		-0.1425		C.ar		1		UNL1		-0.3477
30		C		1.2025		4.3611		0.1768		C.ar		1		UNL1		-0.0915
31		C		1.7661		3.0413		0.0725		C.ar		1		UNL1		0.3178
32		N		3.0522		2.7344		0.2978		N.ar		1		UNL1		-0.5805
33		C		6.8071		0.0685		0.5705		C.ar		1		UNL1		-0.2060
34		C		7.6276		-1.0458		0.5234		C.ar		1		UNL1		-0.1404
35		H		5.3181		-3.3510		-0.4430		H		1		UNL1		0.1579
36		H		3.8571		-1.3604		-0.3584		H		1		UNL1		0.1929
37		H		5.2110		1.9830		0.6118		H		1		UNL1		0.3478
38		H		-1.2630		-0.6165		-2.7902		H		1		UNL1		0.1653
39		H		-3.7049		-0.9128		-2.4362		H		1		UNL1		0.1500
40		H		-5.2868		-2.4136		-1.5834		H		1		UNL1		0.1508
41		H		-7.7121		-2.7037		-1.2297		H		1		UNL1		0.1648
42		H		-7.6097		0.2558		1.8940		H		1		UNL1		0.1644
43		H		-5.1922		0.5743		1.5123		H		1		UNL1		0.1502
44		H		-3.0983		-0.4672		1.8176		H		1		UNL1		0.1628
45		H		-0.7761		5.2422		-0.1506		H		1		UNL1		0.1894
46		H		1.7834		5.2261		0.4721		H		1		UNL1		0.1633
47		H		7.2269		1.0304		0.8560		H		1		UNL1		0.1363
48		H		8.6806		-0.9563		0.7700		H		1		UNL1		0.1573
@<TRIPOS>BOND
1		38		13		1
2		39		14		1
3		13		14		ar
4		13		12		ar
5		40		17		1
6		14		15		ar
7		41		18		1
8		11		12		1
9		11		10		1
10		17		18		ar
11		17		16		ar
12		12		25		ar
13		18		19		ar
14		28		27		ar
15		28		29		ar
16		10		27		ar
17		10		9		ar
18		35		4		1
19		36		5		1
20		27		31		ar
21		15		16		1
22		15		24		ar
23		9		8		ar
24		4		5		ar
25		4		3		ar
26		45		29		1
27		29		30		ar
28		5		6		ar
29		16		23		ar
30		1		2		3
31		31		30		ar
32		31		32		ar
33		8		32		ar
34		8		7		1
35		2		3		1
36		3		34		ar
37		30		46		1
38		6		7		1
39		6		33		ar
40		7		37		1
41		19		20		1
42		19		22		ar
43		34		33		ar
44		34		48		1
45		20		21		3
46		33		47		1
47		25		24		ar
48		25		26		1
49		24		44		1
50		23		22		ar
51		23		43		1
52		22		42		1

