@<TRIPOS>MOLECULE
SYL-2019-jmc-11603-3-19
 51 55 0 0 0
SMALL
MULLIKEN_CHARGES

@<TRIPOS>ATOM
1		C		5.8008		-1.7464		0.1825		C.ar		1		UNL1		0.1753
2		C		4.4282		-1.9787		0.2658		C.ar		1		UNL1		-0.2406
3		C		3.4822		-1.0760		-0.2499		C.ar		1		UNL1		0.1290
4		C		3.9442		0.1022		-0.8597		C.ar		1		UNL1		-0.1891
5		C		5.3053		0.3612		-0.9552		C.ar		1		UNL1		-0.1404
6		C		6.2359		-0.5547		-0.4411		C.ar		1		UNL1		0.0882
7		C		1.4085		-1.9319		0.9318		C.ar		1		UNL1		0.3320
8		C		0.0434		-2.1778		1.0052		C.ar		1		UNL1		-0.2377
9		C		-0.7485		-1.8419		-0.0869		C.ar		1		UNL1		0.3651
10		C		-0.1912		-1.2778		-1.2332		C.ar		1		UNL1		-0.1414
11		C		1.1791		-1.0381		-1.2656		C.ar		1		UNL1		-0.1951
12		C		2.0259		-1.3555		-0.1872		C.ar		1		UNL1		0.0131
13		C		-3.0594		-1.2373		-0.0524		C.ar		1		UNL1		0.5652
14		C		-4.3886		-1.6632		-0.1151		C.ar		1		UNL1		-0.2334
15		C		-5.3743		-0.6512		-0.1185		C.ar		1		UNL1		0.3263
16		N		-5.0665		0.6577		-0.0658		N.ar		1		UNL1		-0.5825
17		C		-3.7591		0.9316		-0.0071		C.ar		1		UNL1		0.6895
18		N		-2.7401		0.0430		0.0032		N.ar		1		UNL1		-0.5527
19		C		0.1204		3.2309		0.3154		C.ar		1		UNL1		-0.1600
20		C		-1.0043		2.4190		0.2427		C.ar		1		UNL1		-0.1642
21		C		-2.2807		2.9997		0.1189		C.ar		1		UNL1		0.3824
22		C		-2.3866		4.4058		0.0746		C.ar		1		UNL1		-0.2047
23		C		-1.2614		5.2095		0.1465		C.ar		1		UNL1		-0.1406
24		C		0.0146		4.6306		0.2668		C.ar		1		UNL1		0.1320
25		C		7.6371		-0.2739		-0.5515		C.1		1		UNL1		0.2295
26		N		8.7769		-0.0556		-0.6398		N.1		1		UNL1		-0.4828
27		O		-2.0967		-2.1925		-0.0330		O.3		1		UNL1		-0.5630
28		N		-3.4735		2.2819		0.0431		N.pl3		1		UNL1		-0.7745
29		C		1.1838		5.4520		0.3356		C.1		1		UNL1		0.2257
30		N		2.1366		6.1190		0.3880		N.1		1		UNL1		-0.4839
31		S		-5.0761		-3.2652		-0.1941		S.2		1		UNL1		0.2811
32		C		-6.6805		-2.5676		-0.2309		C.ar		1		UNL1		-0.3426
33		C		-6.6990		-1.2082		-0.1868		C.ar		1		UNL1		-0.0965
34		F		2.1523		-2.2566		2.0108		F		1		UNL1		-0.2867
35		C		6.7924		-2.7385		0.7373		C.3		1		UNL1		-0.5351
36		H		4.0865		-2.8928		0.7380		H		1		UNL1		0.1458
37		H		3.2347		0.8298		-1.2416		H		1		UNL1		0.1473
38		H		5.6582		1.2764		-1.4194		H		1		UNL1		0.1655
39		H		-0.3858		-2.6183		1.8974		H		1		UNL1		0.1675
40		H		-0.8187		-1.0381		-2.0840		H		1		UNL1		0.1556
41		H		1.6190		-0.6175		-2.1644		H		1		UNL1		0.1562
42		H		1.1003		2.7742		0.4149		H		1		UNL1		0.1561
43		H		-0.9062		1.3445		0.2803		H		1		UNL1		0.1928
44		H		-3.3674		4.8660		-0.0204		H		1		UNL1		0.1381
45		H		-1.3618		6.2894		0.1088		H		1		UNL1		0.1589
46		H		-4.3212		2.8340		0.0083		H		1		UNL1		0.3489
47		H		-7.5335		-3.2319		-0.2845		H		1		UNL1		0.1889
48		H		-7.5970		-0.6028		-0.2002		H		1		UNL1		0.1625
49		H		7.4742		-3.0992		-0.0418		H		1		UNL1		0.1823
50		H		6.2810		-3.6020		1.1714		H		1		UNL1		0.1624
51		H		7.4158		-2.2835		1.5159		H		1		UNL1		0.1843
@<TRIPOS>BOND
1		41		11		1
2		40		10		1
3		38		5		1
4		11		10		ar
5		11		12		ar
6		37		4		1
7		10		9		ar
8		5		4		ar
9		5		6		ar
10		4		3		ar
11		26		25		3
12		25		6		1
13		6		1		ar
14		47		32		1
15		3		12		1
16		3		2		ar
17		32		31		ar
18		32		33		ar
19		48		33		1
20		31		14		ar
21		12		7		ar
22		33		15		ar
23		15		14		ar
24		15		16		ar
25		14		13		ar
26		9		27		1
27		9		8		ar
28		16		17		ar
29		13		27		1
30		13		18		ar
31		49		35		1
32		44		22		1
33		17		18		ar
34		17		28		1
35		46		28		1
36		28		21		1
37		22		21		ar
38		22		23		ar
39		45		23		1
40		21		20		ar
41		23		24		ar
42		1		2		ar
43		1		35		1
44		20		43		1
45		20		19		ar
46		2		36		1
47		24		19		ar
48		24		29		1
49		19		42		1
50		29		30		3
51		35		50		1
52		35		51		1
53		7		8		ar
54		7		34		1
55		8		39		1

