@<TRIPOS>MOLECULE
SYL-2019-jmc-11603-3-23
 54 58 0 0 0
SMALL
MULLIKEN_CHARGES

@<TRIPOS>ATOM
1		C		5.4462		-0.6075		0.6140		C.ar		1		UNL1		0.1793
2		C		4.0570		-0.7352		0.6277		C.ar		1		UNL1		-0.2547
3		C		3.3729		-1.6395		-0.2026		C.ar		1		UNL1		0.1137
4		C		4.1253		-2.4417		-1.0764		C.ar		1		UNL1		-0.1869
5		C		5.5096		-2.3394		-1.1123		C.ar		1		UNL1		-0.1397
6		C		6.1753		-1.4307		-0.2746		C.ar		1		UNL1		0.0866
7		C		1.1975		-1.6474		1.0567		C.ar		1		UNL1		-0.2602
8		C		-0.1953		-1.7385		1.1356		C.ar		1		UNL1		0.1782
9		C		-0.8891		-1.9262		-0.0656		C.ar		1		UNL1		0.2908
10		C		-0.2368		-2.0351		-1.2882		C.ar		1		UNL1		-0.1518
11		C		1.1514		-1.9411		-1.3359		C.ar		1		UNL1		-0.1953
12		C		1.8927		-1.7416		-0.1606		C.ar		1		UNL1		0.1052
13		C		-3.0989		-1.0371		-0.0700		C.ar		1		UNL1		0.5707
14		C		-4.4786		-1.2640		-0.0686		C.ar		1		UNL1		-0.2336
15		C		-5.3065		-0.1205		-0.1017		C.ar		1		UNL1		0.3253
16		N		-4.8112		1.1311		-0.1324		N.ar		1		UNL1		-0.5835
17		C		-3.4770		1.2118		-0.1288		C.ar		1		UNL1		0.6874
18		N		-2.5978		0.1857		-0.0984		N.ar		1		UNL1		-0.5537
19		C		0.7106		2.9098		-0.2233		C.ar		1		UNL1		-0.1604
20		C		-0.5247		2.2744		-0.2214		C.ar		1		UNL1		-0.1658
21		C		-1.7057		3.0385		-0.1595		C.ar		1		UNL1		0.3820
22		C		-1.6035		4.4446		-0.1060		C.ar		1		UNL1		-0.2049
23		C		-0.3691		5.0719		-0.1081		C.ar		1		UNL1		-0.1409
24		C		0.8114		4.3095		-0.1646		C.ar		1		UNL1		0.1313
25		C		7.6050		-1.3450		-0.3255		C.1		1		UNL1		0.2279
26		N		8.7663		-1.2752		-0.3621		N.1		1		UNL1		-0.4837
27		O		-2.2799		-2.1135		-0.0394		O.3		1		UNL1		-0.5653
28		N		-2.9942		2.5061		-0.1540		N.pl3		1		UNL1		-0.7745
29		C		2.0919		4.9471		-0.1596		C.1		1		UNL1		0.2255
30		N		3.1356		5.4633		-0.1518		N.1		1		UNL1		-0.4856
31		S		-5.3936		-2.7499		-0.0348		S.2		1		UNL1		0.2780
32		C		-6.8803		-1.8278		-0.0645		C.ar		1		UNL1		-0.3429
33		C		-6.6995		-0.4800		-0.0983		C.ar		1		UNL1		-0.0971
34		C		-0.9227		-1.6437		2.4525		C.3		1		UNL1		-0.5394
35		C		6.1482		0.3848		1.5069		C.3		1		UNL1		-0.5355
36		H		3.4853		-0.0908		1.2900		H		1		UNL1		0.1399
37		H		3.6256		-3.1680		-1.7100		H		1		UNL1		0.1444
38		H		6.0890		-2.9678		-1.7813		H		1		UNL1		0.1601
39		H		1.7592		-1.5276		1.9793		H		1		UNL1		0.1388
40		H		-0.8206		-2.1854		-2.1907		H		1		UNL1		0.1501
41		H		1.6585		-1.9971		-2.2942		H		1		UNL1		0.1456
42		H		1.6150		2.3115		-0.2734		H		1		UNL1		0.1567
43		H		-0.5847		1.1974		-0.2673		H		1		UNL1		0.1965
44		H		-2.5087		5.0456		-0.0594		H		1		UNL1		0.1373
45		H		-0.3098		6.1546		-0.0642		H		1		UNL1		0.1579
46		H		-3.7518		3.1775		-0.1530		H		1		UNL1		0.3481
47		H		-7.8221		-2.3615		-0.0547		H		1		UNL1		0.1878
48		H		-7.5002		0.2491		-0.1207		H		1		UNL1		0.1614
49		H		-1.5060		-0.7168		2.5125		H		1		UNL1		0.1785
50		H		-0.2176		-1.6525		3.2884		H		1		UNL1		0.1615
51		H		-1.6224		-2.4764		2.5835		H		1		UNL1		0.1752
52		H		6.8755		-0.1122		2.1594		H		1		UNL1		0.1816
53		H		5.4331		0.9213		2.1365		H		1		UNL1		0.1631
54		H		6.7046		1.1241		0.9189		H		1		UNL1		0.1886
@<TRIPOS>BOND
1		41		11		1
2		40		10		1
3		38		5		1
4		37		4		1
5		11		10		ar
6		11		12		ar
7		10		9		ar
8		5		4		ar
9		5		6		ar
10		4		3		ar
11		26		25		3
12		25		6		1
13		6		1		ar
14		42		19		1
15		43		20		1
16		19		20		ar
17		19		24		ar
18		20		21		ar
19		3		12		1
20		3		2		ar
21		24		29		1
22		24		23		ar
23		12		7		ar
24		29		30		3
25		21		28		1
26		21		22		ar
27		28		46		1
28		28		17		1
29		16		17		ar
30		16		15		ar
31		17		18		ar
32		48		33		1
33		23		22		ar
34		23		45		1
35		22		44		1
36		15		33		ar
37		15		14		ar
38		18		13		ar
39		33		32		ar
40		13		14		ar
41		13		27		1
42		14		31		ar
43		9		27		1
44		9		8		ar
45		32		47		1
46		32		31		ar
47		1		2		ar
48		1		35		1
49		2		36		1
50		54		35		1
51		7		8		ar
52		7		39		1
53		8		34		1
54		35		53		1
55		35		52		1
56		34		49		1
57		34		51		1
58		34		50		1

