@<TRIPOS>MOLECULE
SYL-2019-BC-102974-3-28
 52 56 0 0 0
SMALL
MULLIKEN_CHARGES

@<TRIPOS>ATOM
1		C		5.7605		-2.1008		0.2607		C.ar		1		UNL1		-0.1454
2		C		4.3836		-2.2515		0.3653		C.ar		1		UNL1		-0.1512
3		C		3.5066		-1.3997		-0.3299		C.ar		1		UNL1		0.1109
4		C		4.0614		-0.3835		-1.1281		C.ar		1		UNL1		-0.1808
5		C		5.4377		-0.2200		-1.2373		C.ar		1		UNL1		-0.1414
6		C		6.3007		-1.0823		-0.5427		C.ar		1		UNL1		0.1337
7		C		1.3310		-1.7909		0.9362		C.ar		1		UNL1		0.3376
8		C		-0.0607		-1.9347		0.9346		C.ar		1		UNL1		-0.2324
9		C		-0.7537		-1.8631		-0.2705		C.ar		1		UNL1		0.3635
10		C		-0.1040		-1.6577		-1.4786		C.ar		1		UNL1		-0.1566
11		C		1.2830		-1.5129		-1.4612		C.ar		1		UNL1		-0.1987
12		C		2.0312		-1.5745		-0.2782		C.ar		1		UNL1		0.0316
13		C		-2.9915		-1.0564		-0.2080		C.ar		1		UNL1		0.5636
14		C		-4.3611		-1.3347		-0.2459		C.ar		1		UNL1		-0.2322
15		C		-5.2319		-0.2242		-0.1926		C.ar		1		UNL1		0.3254
16		N		-4.7846		1.0426		-0.1085		N.ar		1		UNL1		-0.5837
17		C		-3.4543		1.1723		-0.0786		C.ar		1		UNL1		0.6881
18		N		-2.5368		0.1812		-0.1240		N.ar		1		UNL1		-0.5514
19		C		0.6624		3.0300		0.1293		C.ar		1		UNL1		-0.1613
20		C		-0.5452		2.3465		0.0636		C.ar		1		UNL1		-0.1662
21		C		-1.7570		3.0635		0.0687		C.ar		1		UNL1		0.3821
22		C		-1.7135		4.4718		0.1418		C.ar		1		UNL1		-0.2053
23		C		-0.5064		5.1469		0.2060		C.ar		1		UNL1		-0.1409
24		C		0.7047		4.4321		0.2004		C.ar		1		UNL1		0.1314
25		C		7.7215		-0.9269		-0.6509		C.1		1		UNL1		0.2368
26		N		8.8754		-0.8060		-0.7392		N.1		1		UNL1		-0.4783
27		O		-2.1335		-2.1026		-0.2542		O.3		1		UNL1		-0.5671
28		N		-3.0225		2.4819		0.0088		N.pl3		1		UNL1		-0.7744
29		C		1.9566		5.1215		0.2642		C.1		1		UNL1		0.2257
30		N		2.9756		5.6824		0.3145		N.1		1		UNL1		-0.4845
31		S		-5.2186		-2.8510		-0.3536		S.2		1		UNL1		0.2778
32		C		-6.7394		-1.9857		-0.3255		C.ar		1		UNL1		-0.3431
33		C		-6.6101		-0.6343		-0.2407		C.ar		1		UNL1		-0.0970
34		O		2.0791		-1.8302		2.0724		O.3		1		UNL1		-0.5098
35		C		1.4203		-1.9572		3.3261		C.3		1		UNL1		-0.2231
36		H		6.4265		-2.7709		0.7949		H		1		UNL1		0.1580
37		H		3.9800		-3.0418		0.9870		H		1		UNL1		0.1502
38		H		3.4028		0.2996		-1.6566		H		1		UNL1		0.1476
39		H		5.8494		0.5753		-1.8501		H		1		UNL1		0.1634
40		H		-0.6175		-2.0995		1.8479		H		1		UNL1		0.1509
41		H		-0.6660		-1.6227		-2.4051		H		1		UNL1		0.1481
42		H		1.8103		-1.3706		-2.3996		H		1		UNL1		0.1498
43		H		1.5915		2.4683		0.1269		H		1		UNL1		0.1575
44		H		-0.5612		1.2683		0.0078		H		1		UNL1		0.1960
45		H		-2.6431		5.0363		0.1469		H		1		UNL1		0.1371
46		H		-0.4923		6.2307		0.2606		H		1		UNL1		0.1579
47		H		-3.8061		3.1222		0.0294		H		1		UNL1		0.3480
48		H		-7.6600		-2.5531		-0.3758		H		1		UNL1		0.1876
49		H		-7.4378		0.0637		-0.2122		H		1		UNL1		0.1613
50		H		2.2100		-1.9257		4.0781		H		1		UNL1		0.1814
51		H		0.8822		-2.9106		3.4034		H		1		UNL1		0.1587
52		H		0.7218		-1.1284		3.4957		H		1		UNL1		0.1630
@<TRIPOS>BOND
1		41		10		1
2		42		11		1
3		39		5		1
4		38		4		1
5		10		11		ar
6		10		9		ar
7		11		12		ar
8		5		4		ar
9		5		6		ar
10		4		3		ar
11		26		25		3
12		25		6		1
13		6		1		ar
14		48		32		1
15		31		32		ar
16		31		14		ar
17		3		12		1
18		3		2		ar
19		32		33		ar
20		12		7		ar
21		9		27		1
22		9		8		ar
23		27		13		1
24		14		13		ar
25		14		15		ar
26		33		49		1
27		33		15		ar
28		13		18		ar
29		15		16		ar
30		18		17		ar
31		16		17		ar
32		17		28		1
33		44		20		1
34		28		47		1
35		28		21		1
36		20		21		ar
37		20		19		ar
38		21		22		ar
39		43		19		1
40		19		24		ar
41		22		45		1
42		22		23		ar
43		24		23		ar
44		24		29		1
45		23		46		1
46		1		2		ar
47		1		36		1
48		29		30		3
49		2		37		1
50		8		7		ar
51		8		40		1
52		7		34		1
53		34		35		1
54		35		51		1
55		35		52		1
56		35		50		1

