@<TRIPOS>MOLECULE
SYL-2019-BC-102974-3-19
 48 52 0 0 0
SMALL
MULLIKEN_CHARGES

@<TRIPOS>ATOM
1		C		5.6545		-0.6514		0.8373		C.ar		1		UNL1		-0.1388
2		C		4.2693		-0.7568		0.7947		C.ar		1		UNL1		-0.1812
3		C		3.6290		-1.5221		-0.1958		C.ar		1		UNL1		0.0983
4		C		4.4258		-2.1810		-1.1483		C.ar		1		UNL1		-0.1783
5		C		5.8116		-2.0831		-1.1161		C.ar		1		UNL1		-0.1397
6		C		6.4383		-1.3163		-0.1199		C.ar		1		UNL1		0.1353
7		C		1.4072		-1.7229		0.9500		C.ar		1		UNL1		-0.1971
8		C		0.0187		-1.8248		0.9172		C.ar		1		UNL1		-0.0948
9		C		-0.6543		-1.8336		-0.3086		C.ar		1		UNL1		0.3614
10		C		0.0708		-1.7508		-1.4942		C.ar		1		UNL1		-0.1493
11		C		1.4582		-1.6498		-1.4611		C.ar		1		UNL1		-0.1864
12		C		2.1493		-1.6313		-0.2381		C.ar		1		UNL1		0.1007
13		C		-2.8555		-0.9502		-0.2787		C.ar		1		UNL1		0.5738
14		C		-4.2311		-1.1873		-0.2716		C.ar		1		UNL1		-0.2305
15		C		-5.0625		-0.0472		-0.1937		C.ar		1		UNL1		0.3257
16		N		-4.5703		1.2034		-0.1289		N.ar		1		UNL1		-0.5828
17		C		-3.2365		1.2912		-0.1442		C.ar		1		UNL1		0.6926
18		N		-2.3547		0.2693		-0.2201		N.ar		1		UNL1		-0.5527
19		C		0.9388		3.0258		-0.1527		C.ar		1		UNL1		-0.1587
20		C		-0.2909		2.3805		-0.1741		C.ar		1		UNL1		-0.1619
21		C		-1.4776		3.1292		-0.0596		C.ar		1		UNL1		0.3837
22		C		-1.3867		4.5308		0.0732		C.ar		1		UNL1		-0.2048
23		C		-0.1577		5.1682		0.0942		C.ar		1		UNL1		-0.1407
24		C		1.0285		4.4210		-0.0181		C.ar		1		UNL1		0.1316
25		C		7.8678		-1.2171		-0.0803		C.1		1		UNL1		0.2396
26		N		9.0282		-1.1413		-0.0488		N.1		1		UNL1		-0.4726
27		O		-2.0284		-2.0255		-0.3629		O.3		1		UNL1		-0.5586
28		N		-2.7612		2.5862		-0.0728		N.pl3		1		UNL1		-0.7756
29		C		2.3033		5.0696		0.0057		C.1		1		UNL1		0.2256
30		N		3.3419		5.5952		0.0265		N.1		1		UNL1		-0.4847
31		S		-5.1415		-2.6744		-0.3383		S.2		1		UNL1		0.2844
32		C		-6.6303		-1.7582		-0.2649		C.ar		1		UNL1		-0.3427
33		C		-6.4540		-0.4114		-0.1922		C.ar		1		UNL1		-0.0965
34		CL		-0.8755		-1.9630		2.4117		Cl		1		UNL1		0.0186
35		H		6.1355		-0.0492		1.6012		H		1		UNL1		0.1685
36		H		3.6746		-0.2169		1.5254		H		1		UNL1		0.1536
37		H		3.9552		-2.7992		-1.9067		H		1		UNL1		0.1493
38		H		6.4158		-2.6042		-1.8516		H		1		UNL1		0.1644
39		H		1.9100		-1.7453		1.9106		H		1		UNL1		0.1683
40		H		-0.4682		-1.7601		-2.4359		H		1		UNL1		0.1599
41		H		2.0069		-1.5577		-2.3931		H		1		UNL1		0.1529
42		H		1.8484		2.4401		-0.2428		H		1		UNL1		0.1538
43		H		-0.3438		1.3071		-0.2768		H		1		UNL1		0.1903
44		H		-2.2965		5.1199		0.1624		H		1		UNL1		0.1380
45		H		-0.1071		6.2472		0.1984		H		1		UNL1		0.1585
46		H		-3.5234		3.2491		-0.0075		H		1		UNL1		0.3488
47		H		-7.5703		-2.2950		-0.2796		H		1		UNL1		0.1885
48		H		-7.2567		0.3138		-0.1381		H		1		UNL1		0.1620
@<TRIPOS>BOND
1		40		10		1
2		41		11		1
3		37		4		1
4		38		5		1
5		10		11		ar
6		10		9		ar
7		11		12		ar
8		4		5		ar
9		4		3		ar
10		5		6		ar
11		27		9		1
12		27		13		1
13		31		14		ar
14		31		32		ar
15		9		8		ar
16		47		32		1
17		13		14		ar
18		13		18		ar
19		43		20		1
20		14		15		ar
21		32		33		ar
22		42		19		1
23		12		3		1
24		12		7		ar
25		18		17		ar
26		3		2		ar
27		15		33		ar
28		15		16		ar
29		33		48		1
30		20		19		ar
31		20		21		ar
32		19		24		ar
33		17		16		ar
34		17		28		1
35		6		25		1
36		6		1		ar
37		25		26		3
38		28		21		1
39		28		46		1
40		21		22		ar
41		24		29		1
42		24		23		ar
43		29		30		3
44		22		23		ar
45		22		44		1
46		23		45		1
47		2		1		ar
48		2		36		1
49		1		35		1
50		8		7		ar
51		8		34		1
52		7		39		1

