@<TRIPOS>MOLECULE
SYL-2019-BC-102974-3-29
 54 58 0 0 0
SMALL
MULLIKEN_CHARGES

@<TRIPOS>ATOM
1		C		5.7010		-0.5640		0.9479		C.ar		1		UNL1		-0.1402
2		C		4.3151		-0.6680		0.9460		C.ar		1		UNL1		-0.1810
3		C		3.6481		-1.5067		0.0352		C.ar		1		UNL1		0.0958
4		C		4.4234		-2.2409		-0.8801		C.ar		1		UNL1		-0.1775
5		C		5.8095		-2.1453		-0.8891		C.ar		1		UNL1		-0.1412
6		C		6.4617		-1.3046		0.0282		C.ar		1		UNL1		0.1337
7		C		1.4502		-1.6125		1.2448		C.ar		1		UNL1		-0.2708
8		C		0.0576		-1.7225		1.2736		C.ar		1		UNL1		0.1845
9		C		-0.6042		-1.8296		0.0463		C.ar		1		UNL1		0.2178
10		C		0.0605		-1.8428		-1.1839		C.ar		1		UNL1		0.1821
11		C		1.4532		-1.7333		-1.1624		C.ar		1		UNL1		-0.2714
12		C		2.1679		-1.6156		0.0392		C.ar		1		UNL1		0.1235
13		C		-2.8359		-0.9853		0.0218		C.ar		1		UNL1		0.5758
14		C		-4.2104		-1.2422		0.0265		C.ar		1		UNL1		-0.2353
15		C		-5.0636		-0.1176		-0.0059		C.ar		1		UNL1		0.3249
16		N		-4.5962		1.1444		-0.0390		N.ar		1		UNL1		-0.5838
17		C		-3.2639		1.2551		-0.0395		C.ar		1		UNL1		0.6868
18		N		-2.3616		0.2486		-0.0114		N.ar		1		UNL1		-0.5551
19		C		0.8820		3.0605		-0.0935		C.ar		1		UNL1		-0.1593
20		C		-0.3357		2.3920		-0.0847		C.ar		1		UNL1		-0.1670
21		C		-1.5375		3.1254		-0.0793		C.ar		1		UNL1		0.3821
22		C		-1.4739		4.5348		-0.0850		C.ar		1		UNL1		-0.2051
23		C		-0.2570		5.1950		-0.0931		C.ar		1		UNL1		-0.1408
24		C		0.9442		4.4636		-0.0966		C.ar		1		UNL1		0.1314
25		C		7.8916		-1.2072		0.0265		C.1		1		UNL1		0.2374
26		N		9.0527		-1.1326		0.0252		N.1		1		UNL1		-0.4765
27		O		-1.9941		-2.0428		0.0523		O.3		1		UNL1		-0.5666
28		N		-2.8119		2.5599		-0.0712		N.pl3		1		UNL1		-0.7750
29		C		2.2063		5.1372		-0.1010		C.1		1		UNL1		0.2261
30		N		3.2337		5.6850		-0.1023		N.1		1		UNL1		-0.4845
31		S		-5.0920		-2.7482		0.0653		S.2		1		UNL1		0.2767
32		C		-6.5991		-1.8594		0.0376		C.ar		1		UNL1		-0.3428
33		C		-6.4483		-0.5080		0.0015		C.ar		1		UNL1		-0.0969
34		C		-0.7083		-1.7318		2.5727		C.3		1		UNL1		-0.5371
35		C		-0.7041		-1.9571		-2.4789		C.3		1		UNL1		-0.5359
36		H		6.2007		0.0952		1.6503		H		1		UNL1		0.1644
37		H		3.7382		-0.0713		1.6460		H		1		UNL1		0.1486
38		H		3.9336		-2.9152		-1.5760		H		1		UNL1		0.1467
39		H		6.3952		-2.7250		-1.5954		H		1		UNL1		0.1609
40		H		1.9869		-1.5562		2.1879		H		1		UNL1		0.1368
41		H		1.9883		-1.7143		-2.1078		H		1		UNL1		0.1368
42		H		1.8030		2.4858		-0.0994		H		1		UNL1		0.1571
43		H		-0.3660		1.3126		-0.0816		H		1		UNL1		0.1962
44		H		-2.3956		5.1120		-0.0816		H		1		UNL1		0.1373
45		H		-0.2273		6.2798		-0.0960		H		1		UNL1		0.1582
46		H		-3.5860		3.2121		-0.0831		H		1		UNL1		0.3483
47		H		-7.5287		-2.4139		0.0505		H		1		UNL1		0.1880
48		H		-7.2650		0.2032		-0.0197		H		1		UNL1		0.1617
49		H		-1.3325		-0.8351		2.6687		H		1		UNL1		0.1760
50		H		-0.0251		-1.7583		3.4261		H		1		UNL1		0.1611
51		H		-1.3750		-2.5986		2.6381		H		1		UNL1		0.1754
52		H		-0.0200		-2.0529		-3.3267		H		1		UNL1		0.1606
53		H		-1.3290		-1.0721		-2.6495		H		1		UNL1		0.1759
54		H		-1.3707		-2.8265		-2.4737		H		1		UNL1		0.1753
@<TRIPOS>BOND
1		52		35		1
2		53		35		1
3		35		54		1
4		35		10		1
5		41		11		1
6		39		5		1
7		38		4		1
8		10		11		ar
9		10		9		ar
10		11		12		ar
11		5		4		ar
12		5		6		ar
13		4		3		ar
14		30		29		3
15		29		24		1
16		42		19		1
17		24		19		ar
18		24		23		ar
19		45		23		1
20		19		20		ar
21		23		22		ar
22		22		44		1
23		22		21		ar
24		20		43		1
25		20		21		ar
26		46		28		1
27		21		28		1
28		28		17		1
29		17		16		ar
30		17		18		ar
31		16		15		ar
32		48		33		1
33		18		13		ar
34		15		33		ar
35		15		14		ar
36		33		32		ar
37		13		14		ar
38		13		27		1
39		26		25		3
40		25		6		1
41		14		31		ar
42		6		1		ar
43		3		12		1
44		3		2		ar
45		32		47		1
46		32		31		ar
47		12		7		ar
48		9		27		1
49		9		8		ar
50		2		1		ar
51		2		37		1
52		1		36		1
53		7		8		ar
54		7		40		1
55		8		34		1
56		34		51		1
57		34		49		1
58		34		50		1

