@<TRIPOS>MOLECULE
SYL-2019-BC-102974-3-26
 50 54 0 0 0
SMALL
MULLIKEN_CHARGES

@<TRIPOS>ATOM
1		C		5.3537		-0.1085		0.2368		C.ar		1		UNL1		-0.1375
2		C		3.9877		-0.3414		0.3332		C.ar		1		UNL1		-0.1605
3		C		3.3973		-1.4358		-0.3191		C.ar		1		UNL1		0.1105
4		C		4.2092		-2.2902		-1.0789		C.ar		1		UNL1		-0.1696
5		C		5.5792		-2.0706		-1.1767		C.ar		1		UNL1		-0.1390
6		C		6.1609		-0.9757		-0.5189		C.ar		1		UNL1		0.1371
7		C		1.1390		-1.7238		0.8764		C.ar		1		UNL1		0.2173
8		C		-0.2501		-1.8161		0.8440		C.ar		1		UNL1		-0.1662
9		C		-0.8888		-1.8670		-0.3882		C.ar		1		UNL1		0.3632
10		C		-0.1574		-1.8261		-1.5710		C.ar		1		UNL1		-0.1340
11		C		1.2292		-1.7045		-1.5099		C.ar		1		UNL1		-0.1958
12		C		1.9230		-1.6450		-0.2897		C.ar		1		UNL1		0.0707
13		C		-3.0942		-0.9908		-0.2961		C.ar		1		UNL1		0.5599
14		C		-4.4682		-1.2322		-0.2531		C.ar		1		UNL1		-0.2289
15		C		-5.2979		-0.0978		-0.1007		C.ar		1		UNL1		0.3261
16		N		-4.8056		1.1503		-0.0047		N.ar		1		UNL1		-0.5804
17		C		-3.4733		1.2440		-0.0644		C.ar		1		UNL1		0.6921
18		N		-2.5929		0.2268		-0.2066		N.ar		1		UNL1		-0.5539
19		C		0.6885		2.9982		-0.2656		C.ar		1		UNL1		-0.1588
20		C		-0.5391		2.3489		-0.2386		C.ar		1		UNL1		-0.1597
21		C		-1.7155		3.0834		0.0010		C.ar		1		UNL1		0.3838
22		C		-1.6174		4.4749		0.2092		C.ar		1		UNL1		-0.2040
23		C		-0.3905		5.1164		0.1822		C.ar		1		UNL1		-0.1399
24		C		0.7857		4.3834		-0.0561		C.ar		1		UNL1		0.1336
25		C		7.5720		-0.7435		-0.6228		C.1		1		UNL1		0.2408
26		N		8.7172		-0.5594		-0.7114		N.1		1		UNL1		-0.4721
27		O		-2.2667		-2.0603		-0.4439		O.3		1		UNL1		-0.5670
28		N		-2.9975		2.5356		0.0384		N.pl3		1		UNL1		-0.7749
29		C		2.0590		5.0349		-0.0847		C.1		1		UNL1		0.2255
30		N		3.0975		5.5606		-0.1080		N.1		1		UNL1		-0.4824
31		S		-5.3787		-2.7180		-0.3463		S.2		1		UNL1		0.2831
32		C		-6.8650		-1.8089		-0.1822		C.ar		1		UNL1		-0.3420
33		C		-6.6879		-0.4656		-0.0629		C.ar		1		UNL1		-0.0956
34		N		1.7522		-1.7822		2.2207		N.pl3		1		UNL1		0.3466
35		O		2.8522		-2.3170		2.3243		O.2		1		UNL1		-0.3701
36		O		1.0997		-1.3168		3.1541		O.2		1		UNL1		-0.3724
37		H		5.8011		0.7430		0.7387		H		1		UNL1		0.1736
38		H		3.3723		0.3397		0.9139		H		1		UNL1		0.1558
39		H		3.7664		-3.1457		-1.5803		H		1		UNL1		0.1504
40		H		6.2029		-2.7426		-1.7570		H		1		UNL1		0.1650
41		H		-0.8101		-1.8643		1.7693		H		1		UNL1		0.1960
42		H		-0.6733		-1.8750		-2.5242		H		1		UNL1		0.1662
43		H		1.7978		-1.6266		-2.4312		H		1		UNL1		0.1652
44		H		1.5905		2.4245		-0.4552		H		1		UNL1		0.1523
45		H		-0.5979		1.2830		-0.3991		H		1		UNL1		0.1842
46		H		-2.5193		5.0531		0.3961		H		1		UNL1		0.1397
47		H		-0.3339		6.1876		0.3463		H		1		UNL1		0.1605
48		H		-3.7565		3.1931		0.1667		H		1		UNL1		0.3501
49		H		-7.8042		-2.3473		-0.1846		H		1		UNL1		0.1908
50		H		-7.4892		0.2545		0.0484		H		1		UNL1		0.1644
@<TRIPOS>BOND
1		42		10		1
2		43		11		1
3		40		5		1
4		39		4		1
5		10		11		ar
6		10		9		ar
7		11		12		ar
8		5		4		ar
9		5		6		ar
10		4		3		ar
11		26		25		3
12		25		6		1
13		6		1		ar
14		44		19		1
15		27		9		1
16		27		13		1
17		45		20		1
18		9		8		ar
19		31		14		ar
20		31		32		ar
21		3		12		1
22		3		2		ar
23		13		14		ar
24		13		18		ar
25		12		7		ar
26		19		20		ar
27		19		24		ar
28		14		15		ar
29		20		21		ar
30		18		17		ar
31		49		32		1
32		32		33		ar
33		30		29		3
34		15		33		ar
35		15		16		ar
36		29		24		1
37		17		16		ar
38		17		28		1
39		33		50		1
40		24		23		ar
41		21		28		1
42		21		22		ar
43		28		48		1
44		23		22		ar
45		23		47		1
46		22		46		1
47		1		2		ar
48		1		37		1
49		2		38		1
50		8		7		ar
51		8		41		1
52		7		34		1
53		34		35		2
54		34		36		2

