@<TRIPOS>MOLECULE
SYL-2019-BC-102974-3-23
 49 53 0 0 0
SMALL
MULLIKEN_CHARGES

@<TRIPOS>ATOM
1		C		5.6534		-0.5749		0.8347		C.ar		1		UNL1		-0.1388
2		C		4.2686		-0.6827		0.7814		C.ar		1		UNL1		-0.1803
3		C		3.6434		-1.5539		-0.1274		C.ar		1		UNL1		0.0986
4		C		4.4528		-2.3173		-0.9865		C.ar		1		UNL1		-0.1783
5		C		5.8381		-2.2181		-0.9425		C.ar		1		UNL1		-0.1395
6		C		6.4503		-1.3445		-0.0288		C.ar		1		UNL1		0.1365
7		C		1.3997		-1.6332		0.9930		C.ar		1		UNL1		-0.2117
8		C		0.0022		-1.7406		0.9524		C.ar		1		UNL1		0.1523
9		C		-0.6397		-1.8794		-0.2900		C.ar		1		UNL1		0.3515
10		C		0.1040		-1.9220		-1.4624		C.ar		1		UNL1		-0.1625
11		C		1.4918		-1.8157		-1.4064		C.ar		1		UNL1		-0.1766
12		C		2.1642		-1.6667		-0.1807		C.ar		1		UNL1		0.0933
13		C		-2.8518		-1.0110		-0.2570		C.ar		1		UNL1		0.5689
14		C		-4.2227		-1.2639		-0.2289		C.ar		1		UNL1		-0.2272
15		C		-5.0635		-0.1305		-0.1413		C.ar		1		UNL1		0.3271
16		N		-4.5819		1.1243		-0.0892		N.ar		1		UNL1		-0.5812
17		C		-3.2499		1.2265		-0.1254		C.ar		1		UNL1		0.6969
18		N		-2.3595		0.2119		-0.2118		N.ar		1		UNL1		-0.5552
19		C		0.9026		3.0089		-0.2705		C.ar		1		UNL1		-0.1580
20		C		-0.3205		2.3510		-0.2621		C.ar		1		UNL1		-0.1605
21		C		-1.5094		3.0828		-0.0815		C.ar		1		UNL1		0.3856
22		C		-1.4275		4.4813		0.0847		C.ar		1		UNL1		-0.2041
23		C		-0.2051		5.1315		0.0756		C.ar		1		UNL1		-0.1403
24		C		0.9834		4.4008		-0.1018		C.ar		1		UNL1		0.1321
25		C		7.8793		-1.2423		0.0222		C.1		1		UNL1		0.2408
26		N		9.0392		-1.1639		0.0626		N.1		1		UNL1		-0.4703
27		O		-2.0107		-2.0797		-0.3503		O.3		1		UNL1		-0.5703
28		N		-2.7869		2.5260		-0.0651		N.pl3		1		UNL1		-0.7762
29		C		2.2522		5.0614		-0.1095		C.1		1		UNL1		0.2255
30		N		3.2870		5.5949		-0.1148		N.1		1		UNL1		-0.4840
31		S		-5.1197		-2.7593		-0.2735		S.2		1		UNL1		0.2886
32		C		-6.6154		-1.8563		-0.1796		C.ar		1		UNL1		-0.3415
33		C		-6.4511		-0.5076		-0.1153		C.ar		1		UNL1		-0.0953
34		C		-0.7581		-1.7252		2.1658		C.1		1		UNL1		0.2461
35		N		-1.3659		-1.7128		3.1569		N.1		1		UNL1		-0.4713
36		H		6.1236		0.1088		1.5338		H		1		UNL1		0.1714
37		H		3.6640		-0.0632		1.4370		H		1		UNL1		0.1556
38		H		3.9932		-3.0173		-1.6779		H		1		UNL1		0.1497
39		H		6.4528		-2.8196		-1.6042		H		1		UNL1		0.1663
40		H		1.8855		-1.5509		1.9594		H		1		UNL1		0.1737
41		H		-0.4125		-2.0319		-2.4101		H		1		UNL1		0.1655
42		H		2.0597		-1.8235		-2.3317		H		1		UNL1		0.1588
43		H		1.8142		2.4366		-0.4121		H		1		UNL1		0.1519
44		H		-0.3668		1.2804		-0.3924		H		1		UNL1		0.1838
45		H		-2.3390		5.0576		0.2254		H		1		UNL1		0.1396
46		H		-0.1614		6.2078		0.2071		H		1		UNL1		0.1596
47		H		-3.5543		3.1800		0.0256		H		1		UNL1		0.3500
48		H		-7.5502		-2.4022		-0.1754		H		1		UNL1		0.1899
49		H		-7.2596		0.2100		-0.0496		H		1		UNL1		0.1635
@<TRIPOS>BOND
1		41		10		1
2		42		11		1
3		38		4		1
4		39		5		1
5		10		11		ar
6		10		9		ar
7		11		12		ar
8		4		5		ar
9		4		3		ar
10		5		6		ar
11		43		19		1
12		44		20		1
13		27		9		1
14		27		13		1
15		9		8		ar
16		31		14		ar
17		31		32		ar
18		19		20		ar
19		19		24		ar
20		20		21		ar
21		13		14		ar
22		13		18		ar
23		14		15		ar
24		18		17		ar
25		12		3		1
26		12		7		ar
27		32		48		1
28		32		33		ar
29		15		33		ar
30		15		16		ar
31		3		2		ar
32		17		16		ar
33		17		28		1
34		33		49		1
35		30		29		3
36		29		24		1
37		24		23		ar
38		21		28		1
39		21		22		ar
40		28		47		1
41		6		25		1
42		6		1		ar
43		25		26		3
44		23		22		ar
45		23		46		1
46		22		45		1
47		2		1		ar
48		2		37		1
49		1		36		1
50		8		7		ar
51		8		34		1
52		7		40		1
53		34		35		3

