@<TRIPOS>MOLECULE
SYL-2019-BC-102974-3-14
 48 52 0 0 0
SMALL
MULLIKEN_CHARGES

@<TRIPOS>ATOM
1		C		-5.8535		-2.3963		-0.5920		C.ar		1		UNL1		-0.1403
2		C		-4.4694		-2.5163		-0.6129		C.ar		1		UNL1		-0.1793
3		C		-3.6475		-1.5863		0.0485		C.ar		1		UNL1		0.1015
4		C		-4.2651		-0.5258		0.7353		C.ar		1		UNL1		-0.1834
5		C		-5.6484		-0.3949		0.7646		C.ar		1		UNL1		-0.1396
6		C		-6.4560		-1.3322		0.0996		C.ar		1		UNL1		0.1336
7		C		-1.5072		-2.1673		-1.1348		C.ar		1		UNL1		-0.1866
8		C		-0.1200		-2.2929		-1.1663		C.ar		1		UNL1		-0.1597
9		C		0.6182		-1.9719		-0.0318		C.ar		1		UNL1		0.3579
10		C		-0.0081		-1.5354		1.1338		C.ar		1		UNL1		-0.1453
11		C		-1.3943		-1.4082		1.1511		C.ar		1		UNL1		-0.1889
12		C		-2.1702		-1.7206		0.0205		C.ar		1		UNL1		0.0938
13		C		2.8642		-1.1605		-0.0189		C.ar		1		UNL1		0.5654
14		C		4.2289		-1.4584		0.0339		C.ar		1		UNL1		-0.2334
15		C		5.1140		-0.3582		0.0636		C.ar		1		UNL1		0.3260
16		N		4.6833		0.9168		0.0440		N.ar		1		UNL1		-0.5834
17		C		3.3558		1.0658		-0.0077		C.ar		1		UNL1		0.6893
18		N		2.4257		0.0856		-0.0411		N.ar		1		UNL1		-0.5529
19		C		-0.7292		2.9906		-0.2170		C.ar		1		UNL1		-0.1601
20		C		0.4684		2.2883		-0.1762		C.ar		1		UNL1		-0.1650
21		C		1.6866		2.9864		-0.0723		C.ar		1		UNL1		0.3823
22		C		1.6598		4.3959		-0.0154		C.ar		1		UNL1		-0.2048
23		C		0.4623		5.0899		-0.0556		C.ar		1		UNL1		-0.1409
24		C		-0.7554		4.3936		-0.1558		C.ar		1		UNL1		0.1318
25		C		-7.8835		-1.2070		0.1270		C.1		1		UNL1		0.2381
26		N		-9.0427		-1.1097		0.1493		N.1		1		UNL1		-0.4751
27		O		1.9967		-2.1999		-0.0611		O.3		1		UNL1		-0.5622
28		N		2.9427		2.3842		-0.0248		N.pl3		1		UNL1		-0.7746
29		C		-1.9986		5.1004		-0.1920		C.1		1		UNL1		0.2252
30		N		-3.0121		5.6728		-0.2183		N.1		1		UNL1		-0.4848
31		S		5.0659		-2.9895		0.0712		S.2		1		UNL1		0.2794
32		C		6.5969		-2.1440		0.1265		C.ar		1		UNL1		-0.3429
33		C		6.4857		-0.7883		0.1176		C.ar		1		UNL1		-0.0968
34		H		-6.4754		-3.1267		-1.0994		H		1		UNL1		0.1621
35		H		-4.0182		-3.3591		-1.1277		H		1		UNL1		0.1475
36		H		-3.6532		0.2211		1.2323		H		1		UNL1		0.1502
37		H		-6.1097		0.4348		1.2903		H		1		UNL1		0.1669
38		H		-2.0790		-2.3930		-2.0298		H		1		UNL1		0.1479
39		H		0.3937		-2.6308		-2.0605		H		1		UNL1		0.1536
40		H		0.5829		-1.3078		2.0144		H		1		UNL1		0.1539
41		H		-1.8836		-1.0922		2.0675		H		1		UNL1		0.1490
42		H		-1.6631		2.4435		-0.3003		H		1		UNL1		0.1547
43		H		0.4716		1.2097		-0.2237		H		1		UNL1		0.1957
44		H		2.5945		4.9460		0.0642		H		1		UNL1		0.1377
45		H		0.4609		6.1741		-0.0086		H		1		UNL1		0.1583
46		H		3.7347		3.0132		0.0171		H		1		UNL1		0.3484
47		H		7.5094		-2.7253		0.1632		H		1		UNL1		0.1881
48		H		7.3221		-0.1007		0.1470		H		1		UNL1		0.1617
@<TRIPOS>BOND
1		39		8		1
2		38		7		1
3		8		7		ar
4		8		9		ar
5		7		12		ar
6		35		2		1
7		34		1		1
8		2		1		ar
9		2		3		ar
10		1		6		ar
11		42		19		1
12		43		20		1
13		30		29		3
14		19		20		ar
15		19		24		ar
16		29		24		1
17		20		21		ar
18		24		23		ar
19		21		28		1
20		21		22		ar
21		27		9		1
22		27		13		1
23		23		22		ar
24		23		45		1
25		18		13		ar
26		18		17		ar
27		9		10		ar
28		28		17		1
29		28		46		1
30		13		14		ar
31		22		44		1
32		17		16		ar
33		12		3		1
34		12		11		ar
35		14		15		ar
36		14		31		ar
37		16		15		ar
38		3		4		ar
39		15		33		ar
40		31		32		ar
41		6		25		1
42		6		5		ar
43		33		32		ar
44		33		48		1
45		32		47		1
46		25		26		3
47		4		5		ar
48		4		36		1
49		5		37		1
50		10		11		ar
51		10		40		1
52		11		41		1

