@<TRIPOS>MOLECULE
SYL-2019-BC-102974-3-15
 51 55 0 0 0
SMALL
MULLIKEN_CHARGES

@<TRIPOS>ATOM
1		C		5.7874		-2.1100		0.8269		C.ar		1		UNL1		-0.1409
2		C		4.4020		-2.2168		0.8248		C.ar		1		UNL1		-0.1773
3		C		3.6223		-1.5589		-0.1431		C.ar		1		UNL1		0.0978
4		C		4.2833		-0.7852		-1.1138		C.ar		1		UNL1		-0.1819
5		C		5.6683		-0.6708		-1.1231		C.ar		1		UNL1		-0.1393
6		C		6.4337		-1.3349		-0.1504		C.ar		1		UNL1		0.1340
7		C		1.4242		-1.7082		1.0645		C.ar		1		UNL1		-0.2620
8		C		0.0315		-1.8212		1.1067		C.ar		1		UNL1		0.1760
9		C		-0.6370		-1.9057		-0.1203		C.ar		1		UNL1		0.2927
10		C		0.0392		-1.8883		-1.3347		C.ar		1		UNL1		-0.1501
11		C		1.4264		-1.7705		-1.3461		C.ar		1		UNL1		-0.1950
12		C		2.1430		-1.6783		-0.1424		C.ar		1		UNL1		0.1081
13		C		-2.8646		-1.0594		-0.1251		C.ar		1		UNL1		0.5701
14		C		-4.2384		-1.3157		-0.1669		C.ar		1		UNL1		-0.2334
15		C		-5.0910		-0.1901		-0.1559		C.ar		1		UNL1		0.3254
16		N		-4.6231		1.0712		-0.1088		N.ar		1		UNL1		-0.5836
17		C		-3.2913		1.1805		-0.0713		C.ar		1		UNL1		0.6878
18		N		-2.3897		0.1732		-0.0755		N.ar		1		UNL1		-0.5540
19		C		0.8542		2.9839		0.0388		C.ar		1		UNL1		-0.1591
20		C		-0.3635		2.3167		-0.0067		C.ar		1		UNL1		-0.1662
21		C		-1.5653		3.0494		0.0214		C.ar		1		UNL1		0.3823
22		C		-1.5019		4.4569		0.0945		C.ar		1		UNL1		-0.2051
23		C		-0.2851		5.1159		0.1380		C.ar		1		UNL1		-0.1408
24		C		0.9162		4.3851		0.1111		C.ar		1		UNL1		0.1313
25		C		7.8629		-1.2268		-0.1558		C.1		1		UNL1		0.2378
26		N		9.0234		-1.1435		-0.1602		N.1		1		UNL1		-0.4757
27		O		-2.0235		-2.1193		-0.1339		O.3		1		UNL1		-0.5654
28		N		-2.8394		2.4849		-0.0210		N.pl3		1		UNL1		-0.7748
29		C		2.1781		5.0577		0.1543		C.1		1		UNL1		0.2261
30		N		3.2053		5.6047		0.1878		N.1		1		UNL1		-0.4846
31		S		-5.1201		-2.8205		-0.2324		S.2		1		UNL1		0.2779
32		C		-6.6264		-1.9301		-0.2437		C.ar		1		UNL1		-0.3429
33		C		-6.4753		-0.5789		-0.2014		C.ar		1		UNL1		-0.0969
34		C		-0.7241		-1.8372		2.4111		C.3		1		UNL1		-0.5381
35		H		6.3770		-2.6308		1.5745		H		1		UNL1		0.1617
36		H		3.9171		-2.8417		1.5686		H		1		UNL1		0.1471
37		H		3.7023		-0.2464		-1.8562		H		1		UNL1		0.1490
38		H		6.1637		-0.0622		-1.8726		H		1		UNL1		0.1648
39		H		1.9622		-1.6160		2.0042		H		1		UNL1		0.1395
40		H		-0.5235		-1.9803		-2.2581		H		1		UNL1		0.1509
41		H		1.9558		-1.7830		-2.2939		H		1		UNL1		0.1459
42		H		1.7752		2.4098		0.0181		H		1		UNL1		0.1565
43		H		-0.3940		1.2390		-0.0648		H		1		UNL1		0.1954
44		H		-2.4237		5.0336		0.1173		H		1		UNL1		0.1373
45		H		-0.2556		6.1993		0.1936		H		1		UNL1		0.1581
46		H		-3.6134		3.1372		-0.0140		H		1		UNL1		0.3482
47		H		-7.5560		-2.4836		-0.2826		H		1		UNL1		0.1879
48		H		-7.2915		0.1332		-0.2014		H		1		UNL1		0.1616
49		H		-1.3349		-0.9333		2.5233		H		1		UNL1		0.1791
50		H		-0.0356		-1.8853		3.2594		H		1		UNL1		0.1613
51		H		-1.4022		-2.6957		2.4684		H		1		UNL1		0.1757
@<TRIPOS>BOND
1		41		11		1
2		40		10		1
3		38		5		1
4		37		4		1
5		11		10		ar
6		11		12		ar
7		10		9		ar
8		5		4		ar
9		5		6		ar
10		4		3		ar
11		47		32		1
12		32		31		ar
13		32		33		ar
14		31		14		ar
15		48		33		1
16		33		15		ar
17		14		15		ar
18		14		13		ar
19		26		25		3
20		15		16		ar
21		25		6		1
22		6		1		ar
23		3		12		1
24		3		2		ar
25		12		7		ar
26		27		13		1
27		27		9		1
28		13		18		ar
29		9		8		ar
30		16		17		ar
31		18		17		ar
32		17		28		1
33		43		20		1
34		28		46		1
35		28		21		1
36		20		21		ar
37		20		19		ar
38		42		19		1
39		21		22		ar
40		19		24		ar
41		22		44		1
42		22		23		ar
43		24		23		ar
44		24		29		1
45		23		45		1
46		29		30		3
47		2		1		ar
48		2		36		1
49		1		35		1
50		7		8		ar
51		7		39		1
52		8		34		1
53		34		51		1
54		34		49		1
55		34		50		1

