@<TRIPOS>MOLECULE
SYL-2019-BC-102974-3-24
 49 53 0 0 0
SMALL
MULLIKEN_CHARGES

@<TRIPOS>ATOM
1		C		5.9134		-2.1113		-0.1696		C.ar		1		UNL1		-0.1408
2		C		4.5442		-2.3171		-0.0457		C.ar		1		UNL1		-0.1598
3		C		3.6339		-1.2752		-0.2901		C.ar		1		UNL1		0.0846
4		C		4.1377		-0.0172		-0.6655		C.ar		1		UNL1		-0.1734
5		C		5.5046		0.2000		-0.7903		C.ar		1		UNL1		-0.1412
6		C		6.4042		-0.8500		-0.5436		C.ar		1		UNL1		0.1376
7		C		1.5492		-2.1565		0.8879		C.ar		1		UNL1		0.0979
8		C		0.1556		-2.3292		0.9275		C.ar		1		UNL1		-0.1843
9		C		-0.6293		-1.8388		-0.1060		C.ar		1		UNL1		0.3649
10		C		-0.0500		-1.1758		-1.1879		C.ar		1		UNL1		-0.1264
11		C		1.3302		-1.0027		-1.2161		C.ar		1		UNL1		-0.2040
12		C		2.1660		-1.4849		-0.1956		C.ar		1		UNL1		0.0900
13		C		-2.9228		-1.1503		-0.0968		C.ar		1		UNL1		0.5644
14		C		-4.2602		-1.5405		-0.1873		C.ar		1		UNL1		-0.2333
15		C		-5.2177		-0.5009		-0.2022		C.ar		1		UNL1		0.3267
16		N		-4.8744		0.7978		-0.1343		N.ar		1		UNL1		-0.5805
17		C		-3.5618		1.0367		-0.0483		C.ar		1		UNL1		0.6899
18		N		-2.5674		0.1194		-0.0258		N.ar		1		UNL1		-0.5557
19		C		0.3613		3.2307		0.4397		C.ar		1		UNL1		-0.1595
20		C		-0.7833		2.4505		0.3357		C.ar		1		UNL1		-0.1635
21		C		-2.0323		3.0636		0.1243		C.ar		1		UNL1		0.3829
22		C		-2.0921		4.4696		0.0286		C.ar		1		UNL1		-0.2040
23		C		-0.9474		5.2419		0.1321		C.ar		1		UNL1		-0.1402
24		C		0.3021		4.6300		0.3371		C.ar		1		UNL1		0.1330
25		C		7.8157		-0.6366		-0.6772		C.1		1		UNL1		0.2415
26		N		8.9608		-0.4657		-0.7901		N.1		1		UNL1		-0.4715
27		O		-1.9871		-2.1351		-0.0651		O.3		1		UNL1		-0.5612
28		N		-3.2417		2.3782		0.0139		N.pl3		1		UNL1		-0.7740
29		C		1.4927		5.4171		0.4359		C.1		1		UNL1		0.2259
30		N		2.4644		6.0537		0.5114		N.1		1		UNL1		-0.4819
31		S		-4.9899		-3.1222		-0.2904		S.2		1		UNL1		0.2849
32		C		-6.5731		-2.3795		-0.3529		C.ar		1		UNL1		-0.3419
33		C		-6.5554		-1.0205		-0.2997		C.ar		1		UNL1		-0.0959
34		C		2.3027		-2.6531		2.0042		C.1		1		UNL1		0.2298
35		N		2.8726		-3.0712		2.9281		N.1		1		UNL1		-0.4744
36		H		6.6070		-2.9246		0.0163		H		1		UNL1		0.1691
37		H		4.1816		-3.3015		0.2293		H		1		UNL1		0.1642
38		H		3.4510		0.8058		-0.8403		H		1		UNL1		0.1528
39		H		5.8818		1.1781		-1.0702		H		1		UNL1		0.1704
40		H		-0.3103		-2.8398		1.7626		H		1		UNL1		0.1795
41		H		-0.6697		-0.8077		-1.9975		H		1		UNL1		0.1661
42		H		1.7809		-0.5063		-2.0697		H		1		UNL1		0.1624
43		H		1.3197		2.7498		0.6094		H		1		UNL1		0.1554
44		H		-0.7213		1.3758		0.4171		H		1		UNL1		0.1870
45		H		-3.0518		4.9548		-0.1334		H		1		UNL1		0.1399
46		H		-1.0119		6.3222		0.0528		H		1		UNL1		0.1608
47		H		-4.0726		2.9530		-0.0481		H		1		UNL1		0.3502
48		H		-7.4429		-3.0198		-0.4270		H		1		UNL1		0.1912
49		H		-7.4361		-0.3907		-0.3256		H		1		UNL1		0.1645
@<TRIPOS>BOND
1		42		11		1
2		41		10		1
3		11		10		ar
4		11		12		ar
5		10		9		ar
6		39		5		1
7		38		4		1
8		5		4		ar
9		5		6		ar
10		26		25		3
11		25		6		1
12		4		3		ar
13		6		1		ar
14		48		32		1
15		32		33		ar
16		32		31		ar
17		49		33		1
18		33		15		ar
19		31		14		ar
20		3		12		1
21		3		2		ar
22		15		14		ar
23		15		16		ar
24		12		7		ar
25		14		13		ar
26		1		2		ar
27		1		36		1
28		16		17		ar
29		45		22		1
30		9		27		1
31		9		8		ar
32		13		27		1
33		13		18		ar
34		17		18		ar
35		17		28		1
36		47		28		1
37		2		37		1
38		28		21		1
39		22		21		ar
40		22		23		ar
41		46		23		1
42		21		20		ar
43		23		24		ar
44		20		44		1
45		20		19		ar
46		24		29		1
47		24		19		ar
48		29		30		3
49		19		43		1
50		7		8		ar
51		7		34		1
52		8		40		1
53		34		35		3

