@<TRIPOS>MOLECULE
SYL-2019-jmc-11603-3-8
 48 52 0 0 0
SMALL
MULLIKEN_CHARGES

@<TRIPOS>ATOM
1		C		-5.7184		-1.6302		-0.3594		C.ar		1		UNL1		-0.1435
2		C		-4.3604		-1.9283		-0.4251		C.ar		1		UNL1		-0.1212
3		C		-3.3969		-1.1527		0.2484		C.ar		1		UNL1		0.0833
4		C		-3.8703		-0.0632		1.0035		C.ar		1		UNL1		-0.1716
5		C		-5.2197		0.2545		1.0841		C.ar		1		UNL1		-0.1339
6		C		-6.1551		-0.5323		0.3952		C.ar		1		UNL1		0.1402
7		C		-1.2282		-1.5114		-0.9961		C.ar		1		UNL1		-0.1636
8		C		0.1497		-1.7138		-1.0062		C.ar		1		UNL1		-0.1525
9		C		0.8291		-1.8279		0.2037		C.ar		1		UNL1		0.3611
10		C		0.1574		-1.7490		1.4187		C.ar		1		UNL1		-0.1520
11		C		-1.2211		-1.5418		1.4184		C.ar		1		UNL1		-0.1785
12		C		-1.9338		-1.4230		0.2150		C.ar		1		UNL1		0.0711
13		C		3.0944		-1.1088		0.1124		C.ar		1		UNL1		0.5640
14		C		4.4525		-1.4396		0.1115		C.ar		1		UNL1		-0.2313
15		C		5.3629		-0.3635		0.0227		C.ar		1		UNL1		0.3254
16		N		4.9617		0.9189		-0.0597		N.ar		1		UNL1		-0.5830
17		C		3.6375		1.0995		-0.0513		C.ar		1		UNL1		0.6888
18		N		2.6846		0.1445		0.0315		N.ar		1		UNL1		-0.5533
19		C		-0.4105		3.1031		-0.2020		C.ar		1		UNL1		-0.1606
20		C		0.7729		2.3772		-0.1651		C.ar		1		UNL1		-0.1640
21		C		2.0088		3.0517		-0.1650		C.ar		1		UNL1		0.3823
22		C		2.0131		4.4620		-0.2060		C.ar		1		UNL1		-0.2046
23		C		0.8295		5.1797		-0.2415		C.ar		1		UNL1		-0.1410
24		C		-0.4056		4.5071		-0.2386		C.ar		1		UNL1		0.1321
25		C		-7.5545		-0.2273		0.4632		C.1		1		UNL1		0.2439
26		N		-8.6897		0.0186		0.5219		N.1		1		UNL1		-0.4683
27		O		2.1977		-2.1195		0.2043		O.3		1		UNL1		-0.5640
28		N		3.2529		2.4244		-0.1340		N.pl3		1		UNL1		-0.7745
29		C		-1.6350		5.2377		-0.2693		C.1		1		UNL1		0.2246
30		N		-2.6384		5.8280		-0.2907		N.1		1		UNL1		-0.4849
31		S		5.2545		-2.9866		0.2063		S.2		1		UNL1		0.2803
32		C		6.8053		-2.1804		0.1260		C.ar		1		UNL1		-0.3429
33		C		6.7252		-0.8257		0.0333		C.ar		1		UNL1		-0.0969
34		CL		-3.9020		-3.3540		-1.3457		Cl		1		UNL1		0.0106
35		H		-6.4349		-2.2526		-0.8826		H		1		UNL1		0.1843
36		H		-3.1456		0.5553		1.5244		H		1		UNL1		0.1609
37		H		-5.5523		1.1072		1.6661		H		1		UNL1		0.1732
38		H		-1.7572		-1.4106		-1.9377		H		1		UNL1		0.1595
39		H		0.6972		-1.7809		-1.9406		H		1		UNL1		0.1547
40		H		0.7091		-1.8551		2.3470		H		1		UNL1		0.1539
41		H		-1.7533		-1.4900		2.3638		H		1		UNL1		0.1504
42		H		-1.3584		2.5737		-0.2059		H		1		UNL1		0.1521
43		H		0.7519		1.2982		-0.1354		H		1		UNL1		0.1951
44		H		2.9615		4.9943		-0.2078		H		1		UNL1		0.1379
45		H		0.8526		6.2643		-0.2707		H		1		UNL1		0.1585
46		H		4.0591		3.0353		-0.1729		H		1		UNL1		0.3483
47		H		7.7047		-2.7823		0.1532		H		1		UNL1		0.1881
48		H		7.5777		-0.1602		-0.0264		H		1		UNL1		0.1616
@<TRIPOS>BOND
1		39		8		1
2		38		7		1
3		34		2		1
4		8		7		ar
5		8		9		ar
6		7		12		ar
7		35		1		1
8		2		1		ar
9		2		3		ar
10		1		6		ar
11		30		29		3
12		45		23		1
13		29		24		1
14		23		24		ar
15		23		22		ar
16		24		19		ar
17		44		22		1
18		22		21		ar
19		42		19		1
20		19		20		ar
21		46		28		1
22		20		21		ar
23		20		43		1
24		21		28		1
25		28		17		1
26		16		17		ar
27		16		15		ar
28		17		18		ar
29		48		33		1
30		15		33		ar
31		15		14		ar
32		18		13		ar
33		33		32		ar
34		14		13		ar
35		14		31		ar
36		13		27		1
37		32		47		1
38		32		31		ar
39		9		27		1
40		9		10		ar
41		12		3		1
42		12		11		ar
43		3		4		ar
44		6		25		1
45		6		5		ar
46		25		26		3
47		4		5		ar
48		4		36		1
49		5		37		1
50		11		10		ar
51		11		41		1
52		10		40		1

