@<TRIPOS>MOLECULE
WHQ-2015-BMC-624-3-3c
 41 43 0 0 0
SMALL
MULLIKEN_CHARGES
****
Gaussian 16 #p B3LYP/6-31G* opt
@<TRIPOS>ATOM
1		N		10.3437		-0.0697		-0.0022		N.1		1		UNL1		-0.4823
2		C		9.1806		-0.1174		-0.0018		C.1		1		UNL1		0.2288
3		C		7.7507		-0.1777		-0.0013		C.ar		1		UNL1		0.1325
4		C		7.0896		-1.4186		-0.0014		C.ar		1		UNL1		-0.1400
5		C		5.7055		-1.4688		-0.0009		C.ar		1		UNL1		-0.2058
6		C		4.9379		-0.2869		-0.0003		C.ar		1		UNL1		0.3811
7		N		3.5490		-0.4443		0.0001		N.pl3		1		UNL1		-0.7659
8		C		2.5140		0.4627		0.0009		C.ar		1		UNL1		0.7072
9		N		2.7597		1.7753		0.0011		N.ar		1		UNL1		-0.4873
10		C		1.6734		2.5662		0.0018		C.ar		1		UNL1		0.0719
11		C		0.3750		2.0906		0.0023		C.ar		1		UNL1		-0.2193
12		C		0.2539		0.6897		0.0020		C.ar		1		UNL1		0.6051
13		O		-0.9924		0.1698		0.0025		O.3		1		UNL1		-0.5332
14		C		-1.1283		-1.2600		0.0021		C.3		1		UNL1		-0.1085
15		C		-2.6027		-1.6638		0.0014		C.2		1		UNL1		0.5778
16		O		-2.8794		-2.8544		0.0014		O.2		1		UNL1		-0.4979
17		N		-3.4916		-0.6255		0.0008		N.am		1		UNL1		-0.7222
18		C		-4.9006		-0.6721		-0.0000		C.ar		1		UNL1		0.3634
19		C		-5.6316		-1.8697		-0.0004		C.ar		1		UNL1		-0.1548
20		C		-7.0246		-1.8126		-0.0012		C.ar		1		UNL1		-0.1445
21		C		-7.7111		-0.5981		-0.0017		C.ar		1		UNL1		-0.1269
22		C		-6.9643		0.5783		-0.0014		C.ar		1		UNL1		-0.0707
23		CL		-7.7906		2.1320		-0.0020		Cl		1		UNL1		-0.0229
24		C		-5.5743		0.5590		-0.0005		C.ar		1		UNL1		-0.1970
25		N		1.2935		-0.1260		0.0013		N.ar		1		UNL1		-0.5831
26		C		5.5965		0.9560		-0.0002		C.ar		1		UNL1		-0.1583
27		C		6.9853		0.9998		-0.0007		C.ar		1		UNL1		-0.1531
28		H		7.6670		-2.3373		-0.0019		H		1		UNL1		0.1602
29		H		5.2050		-2.4344		-0.0010		H		1		UNL1		0.1385
30		H		3.2137		-1.3992		0.0001		H		1		UNL1		0.3476
31		H		1.8693		3.6364		0.0019		H		1		UNL1		0.1607
32		H		-0.4920		2.7387		0.0029		H		1		UNL1		0.1533
33		H		-0.6471		-1.6896		-0.8814		H		1		UNL1		0.1972
34		H		-0.6478		-1.6901		0.8856		H		1		UNL1		0.1972
35		H		-3.0721		0.2959		0.0010		H		1		UNL1		0.3582
36		H		-5.1081		-2.8149		0.0000		H		1		UNL1		0.1922
37		H		-7.5891		-2.7408		-0.0015		H		1		UNL1		0.1470
38		H		-8.7946		-0.5609		-0.0024		H		1		UNL1		0.1553
39		H		-5.0205		1.4932		-0.0002		H		1		UNL1		0.1475
40		H		5.0139		1.8657		0.0002		H		1		UNL1		0.1908
41		H		7.4882		1.9616		-0.0006		H		1		UNL1		0.1600
@<TRIPOS>BOND
1		33		14		1
2		38		21		1
3		1		2		3
4		23		22		1
5		28		4		1
6		2		3		1
7		21		22		ar
8		21		20		ar
9		37		20		1
10		4		3		ar
11		4		5		ar
12		22		24		ar
13		3		27		ar
14		20		19		ar
15		29		5		1
16		5		6		ar
17		27		41		1
18		27		26		ar
19		24		39		1
20		24		18		ar
21		19		18		ar
22		19		36		1
23		6		26		ar
24		6		7		1
25		26		40		1
26		18		17		1
27		30		7		1
28		7		8		1
29		17		35		1
30		17		15		1
31		8		9		ar
32		8		25		ar
33		9		10		ar
34		25		12		ar
35		16		15		2
36		15		14		1
37		10		31		1
38		10		11		ar
39		12		11		ar
40		12		13		1
41		14		13		1
42		14		34		1
43		11		32		1

