@<TRIPOS>MOLECULE
WHQ-2015-BMC-624-3-3g
 45 47 0 0 0
SMALL
MULLIKEN_CHARGES
****
Gaussian 16 #p B3LYP/6-31G* opt
@<TRIPOS>ATOM
1		C		9.6418		-1.9255		0.4248		C.3		1		UNL1		-0.2155
2		O		8.9791		-0.8701		-0.2513		O.3		1		UNL1		-0.5069
3		C		7.6267		-0.7554		-0.0986		C.ar		1		UNL1		0.3827
4		C		7.0193		0.3059		-0.7840		C.ar		1		UNL1		-0.1892
5		C		5.6505		0.5253		-0.7046		C.ar		1		UNL1		-0.1631
6		C		4.8523		-0.3308		0.0737		C.ar		1		UNL1		0.3522
7		N		3.4496		-0.1806		0.2063		N.am		1		UNL1		-0.7223
8		C		2.6258		0.7453		-0.3806		C.2		1		UNL1		0.6080
9		O		2.9884		1.6558		-1.1072		O.2		1		UNL1		-0.4887
10		C		1.1401		0.4981		-0.0913		C.3		1		UNL1		-0.1227
11		O		0.5514		1.7717		0.1671		O.3		1		UNL1		-0.4806
12		C		-0.7886		1.8424		0.2195		C.ar		1		UNL1		0.5987
13		C		-1.3575		3.1104		0.4472		C.ar		1		UNL1		-0.2148
14		C		-2.7368		3.1365		0.4986		C.ar		1		UNL1		0.0690
15		N		-3.5130		2.0474		0.3440		N.ar		1		UNL1		-0.4914
16		C		-2.8580		0.9057		0.1307		C.ar		1		UNL1		0.7034
17		N		-3.5490		-0.2752		-0.0468		N.pl3		1		UNL1		-0.7660
18		C		-4.9122		-0.5742		-0.0543		C.ar		1		UNL1		0.3827
19		C		-5.2625		-1.9215		-0.2773		C.ar		1		UNL1		-0.2061
20		C		-6.5889		-2.3187		-0.3011		C.ar		1		UNL1		-0.1403
21		C		-7.6122		-1.3751		-0.1015		C.ar		1		UNL1		0.1313
22		C		-8.9849		-1.7783		-0.1237		C.1		1		UNL1		0.2273
23		N		-10.1011		-2.1085		-0.1417		N.1		1		UNL1		-0.4847
24		C		-7.2633		-0.0327		0.1201		C.ar		1		UNL1		-0.1535
25		C		-5.9345		0.3721		0.1451		C.ar		1		UNL1		-0.1588
26		N		-1.5149		0.7455		0.0643		N.ar		1		UNL1		-0.5906
27		C		5.4589		-1.3888		0.7572		C.ar		1		UNL1		-0.2056
28		C		6.8348		-1.6072		0.6786		C.ar		1		UNL1		-0.1986
29		H		9.5255		-1.8444		1.5140		H		1		UNL1		0.1512
30		H		10.6983		-1.8298		0.1679		H		1		UNL1		0.1725
31		H		9.2774		-2.9084		0.0964		H		1		UNL1		0.1509
32		H		7.6461		0.9604		-1.3815		H		1		UNL1		0.1464
33		H		5.1915		1.3490		-1.2330		H		1		UNL1		0.1906
34		H		3.0094		-0.8515		0.8216		H		1		UNL1		0.3303
35		H		0.9694		-0.1711		0.7610		H		1		UNL1		0.1496
36		H		0.6753		0.0402		-0.9715		H		1		UNL1		0.1914
37		H		-0.7396		3.9909		0.5663		H		1		UNL1		0.1629
38		H		-3.2665		4.0712		0.6706		H		1		UNL1		0.1570
39		H		-2.9248		-1.0557		-0.2038		H		1		UNL1		0.3426
40		H		-4.4797		-2.6605		-0.4335		H		1		UNL1		0.1339
41		H		-6.8419		-3.3597		-0.4742		H		1		UNL1		0.1574
42		H		-8.0470		0.7023		0.2746		H		1		UNL1		0.1587
43		H		-5.6724		1.4063		0.3155		H		1		UNL1		0.1914
44		H		4.8537		-2.0602		1.3639		H		1		UNL1		0.1220
45		H		7.2682		-2.4378		1.2233		H		1		UNL1		0.1349
@<TRIPOS>BOND
1		32		4		1
2		33		5		1
3		9		8		2
4		36		10		1
5		4		5		ar
6		4		3		ar
7		5		6		ar
8		41		20		1
9		40		19		1
10		8		10		1
11		8		7		1
12		20		19		ar
13		20		21		ar
14		19		18		ar
15		2		3		1
16		2		1		1
17		39		17		1
18		23		22		3
19		22		21		1
20		21		24		ar
21		3		28		ar
22		10		11		1
23		10		35		1
24		18		17		1
25		18		25		ar
26		17		16		1
27		26		16		ar
28		26		12		ar
29		6		7		1
30		6		27		ar
31		31		1		1
32		24		25		ar
33		24		42		1
34		16		15		ar
35		25		43		1
36		11		12		1
37		30		1		1
38		7		34		1
39		12		13		ar
40		15		14		ar
41		1		29		1
42		13		14		ar
43		13		37		1
44		14		38		1
45		28		27		ar
46		28		45		1
47		27		44		1

