@<TRIPOS>MOLECULE
WHQ-2014-SQER-761-32
 40 43 0 0 0
SMALL
MULLIKEN_CHARGES
****
Gaussian 16 #p B3LYP/6-31G* opt
@<TRIPOS>ATOM
1		N		9.7914		0.2275		0.5432		N.1		1		UNL1		-0.4831
2		C		8.6599		0.0521		0.3335		C.1		1		UNL1		0.2288
3		C		7.2694		-0.1659		0.0743		C.ar		1		UNL1		0.1325
4		C		6.8381		-1.3507		-0.5478		C.ar		1		UNL1		-0.1401
5		C		5.4909		-1.5546		-0.7959		C.ar		1		UNL1		-0.2050
6		C		4.5328		-0.5869		-0.4330		C.ar		1		UNL1		0.3810
7		N		3.2003		-0.8896		-0.7286		N.pl3		1		UNL1		-0.7687
8		C		2.0254		-0.2061		-0.5254		C.ar		1		UNL1		0.7032
9		N		2.0435		0.9991		0.0652		N.ar		1		UNL1		-0.4880
10		C		0.8569		1.5669		0.2128		C.ar		1		UNL1		0.1317
11		CL		0.8427		3.1448		0.9799		Cl		1		UNL1		0.0185
12		C		-0.3483		1.0104		-0.1894		C.ar		1		UNL1		-0.2004
13		C		-0.2228		-0.2510		-0.7943		C.ar		1		UNL1		0.5554
14		O		-1.2803		-0.9583		-1.2723		O.3		1		UNL1		-0.5250
15		C		-2.5676		-0.4519		-1.1613		C.ar		1		UNL1		0.2822
16		C		-3.1269		0.1611		-2.3050		C.ar		1		UNL1		-0.1526
17		C		-4.4272		0.6008		-2.2787		C.ar		1		UNL1		-0.2007
18		C		-5.2251		0.4495		-1.1141		C.ar		1		UNL1		0.1538
19		C		-6.5710		0.9014		-1.0750		C.ar		1		UNL1		-0.1955
20		C		-7.3373		0.7491		0.0570		C.ar		1		UNL1		-0.1286
21		C		-6.7854		0.1341		1.2053		C.ar		1		UNL1		-0.1320
22		C		-5.4846		-0.3170		1.2052		C.ar		1		UNL1		-0.1859
23		C		-4.6668		-0.1758		0.0529		C.ar		1		UNL1		0.0903
24		C		-3.3137		-0.6231		-0.0134		C.ar		1		UNL1		-0.0122
25		BR		-2.4942		-1.4687		1.4837		Br		1		UNL1		-0.0891
26		N		0.9376		-0.8618		-0.9681		N.ar		1		UNL1		-0.5420
27		C		4.9612		0.5994		0.1898		C.ar		1		UNL1		-0.1613
28		C		6.3144		0.7980		0.4360		C.ar		1		UNL1		-0.1536
29		H		7.5638		-2.1052		-0.8331		H		1		UNL1		0.1595
30		H		5.1684		-2.4748		-1.2775		H		1		UNL1		0.1395
31		H		3.0371		-1.7817		-1.1784		H		1		UNL1		0.3530
32		H		-1.2957		1.5076		-0.0443		H		1		UNL1		0.1820
33		H		-2.5067		0.2602		-3.1898		H		1		UNL1		0.1581
34		H		-4.8624		1.0711		-3.1560		H		1		UNL1		0.1485
35		H		-6.9844		1.3726		-1.9632		H		1		UNL1		0.1406
36		H		-8.3651		1.0998		0.0728		H		1		UNL1		0.1416
37		H		-7.3941		0.0167		2.0973		H		1		UNL1		0.1430
38		H		-5.0669		-0.7865		2.0884		H		1		UNL1		0.1607
39		H		4.2358		1.3480		0.4730		H		1		UNL1		0.1982
40		H		6.6387		1.7154		0.9169		H		1		UNL1		0.1614
@<TRIPOS>BOND
1		33		16		1
2		34		17		1
3		16		17		ar
4		16		15		ar
5		17		18		ar
6		35		19		1
7		30		5		1
8		14		15		1
9		14		13		1
10		31		7		1
11		15		24		ar
12		18		19		ar
13		18		23		ar
14		19		20		ar
15		26		13		ar
16		26		8		ar
17		29		4		1
18		5		4		ar
19		5		6		ar
20		13		12		ar
21		7		8		1
22		7		6		1
23		4		3		ar
24		8		9		ar
25		6		27		ar
26		12		32		1
27		12		10		ar
28		24		23		ar
29		24		25		1
30		23		22		ar
31		20		36		1
32		20		21		ar
33		9		10		ar
34		3		2		1
35		3		28		ar
36		27		28		ar
37		27		39		1
38		10		11		1
39		2		1		3
40		28		40		1
41		22		21		ar
42		22		38		1
43		21		37		1

