@<TRIPOS>MOLECULE
WHQ-2014-SQER-761-65
 54 57 0 0 0
SMALL
MULLIKEN_CHARGES
****
Gaussian 16 #p B3LYP/6-31G* opt
@<TRIPOS>ATOM
1		C		3.4692		3.6910		-0.2580		C.3		1		UNL1		-0.2885
2		N		2.0266		3.7468		-0.0984		N.pl3		1		UNL1		-0.6480
3		C		1.2391		2.6329		-0.0469		C.ar		1		UNL1		0.5085
4		N		1.9087		1.4582		-0.0477		N.ar		1		UNL1		-0.5987
5		C		1.1683		0.3558		0.0054		C.ar		1		UNL1		0.7079
6		N		1.7664		-0.8935		0.0210		N.pl3		1		UNL1		-0.7812
7		C		3.0943		-1.3048		-0.0128		C.ar		1		UNL1		0.3846
8		C		4.1962		-0.4305		-0.0774		C.ar		1		UNL1		-0.1623
9		C		5.4866		-0.9429		-0.1062		C.ar		1		UNL1		-0.1576
10		C		5.7222		-2.3276		-0.0721		C.ar		1		UNL1		0.1297
11		C		7.0568		-2.8410		-0.1019		C.1		1		UNL1		0.2247
12		N		8.1434		-3.2589		-0.1260		N.1		1		UNL1		-0.4883
13		C		4.6209		-3.2004		-0.0083		C.ar		1		UNL1		-0.1415
14		C		3.3322		-2.6956		0.0207		C.ar		1		UNL1		-0.2052
15		N		-0.1715		0.2899		0.0368		N.ar		1		UNL1		-0.5828
16		C		-0.7996		1.4607		0.0420		C.ar		1		UNL1		0.5101
17		O		-2.1661		1.4428		0.0449		O.3		1		UNL1		-0.5784
18		C		-2.8539		0.2448		0.2385		C.ar		1		UNL1		0.3673
19		C		-2.7768		-0.4259		1.4827		C.ar		1		UNL1		-0.1379
20		C		-3.5478		-1.5434		1.6946		C.ar		1		UNL1		-0.2110
21		C		-4.4261		-2.0353		0.6899		C.ar		1		UNL1		0.1464
22		C		-5.2345		-3.1863		0.8848		C.ar		1		UNL1		-0.1943
23		C		-6.0767		-3.6340		-0.1085		C.ar		1		UNL1		-0.1350
24		C		-6.1483		-2.9472		-1.3449		C.ar		1		UNL1		-0.1362
25		C		-5.3785		-1.8268		-1.5651		C.ar		1		UNL1		-0.1899
26		C		-4.4990		-1.3401		-0.5612		C.ar		1		UNL1		0.1282
27		C		-3.6896		-0.1893		-0.7592		C.ar		1		UNL1		-0.2431
28		C		-0.1782		2.7155		0.0229		C.ar		1		UNL1		0.0393
29		C		-0.9465		4.0323		0.0658		C.3		1		UNL1		-0.1492
30		C		-1.8090		4.1823		1.3362		C.3		1		UNL1		-0.4461
31		C		-1.7737		4.2769		-1.2127		C.3		1		UNL1		-0.4422
32		H		3.7658		3.2048		-1.1961		H		1		UNL1		0.1681
33		H		3.9274		3.1417		0.5696		H		1		UNL1		0.1803
34		H		3.8522		4.7146		-0.2522		H		1		UNL1		0.1521
35		H		1.5759		4.6270		-0.2837		H		1		UNL1		0.3357
36		H		1.0727		-1.6297		0.0539		H		1		UNL1		0.3473
37		H		4.0207		0.6346		-0.1056		H		1		UNL1		0.1889
38		H		6.3305		-0.2618		-0.1563		H		1		UNL1		0.1520
39		H		4.7849		-4.2729		0.0181		H		1		UNL1		0.1556
40		H		2.4893		-3.3811		0.0701		H		1		UNL1		0.1363
41		H		-2.1102		-0.0480		2.2502		H		1		UNL1		0.1426
42		H		-3.4964		-2.0656		2.6469		H		1		UNL1		0.1357
43		H		-5.1771		-3.7102		1.8362		H		1		UNL1		0.1310
44		H		-6.6900		-4.5162		0.0530		H		1		UNL1		0.1316
45		H		-6.8159		-3.3090		-2.1222		H		1		UNL1		0.1322
46		H		-5.4330		-1.2987		-2.5142		H		1		UNL1		0.1319
47		H		-3.7318		0.3529		-1.6993		H		1		UNL1		0.1400
48		H		-0.2113		4.8454		0.1215		H		1		UNL1		0.1072
49		H		-1.2015		4.0531		2.2388		H		1		UNL1		0.1441
50		H		-2.6163		3.4465		1.3582		H		1		UNL1		0.1707
51		H		-2.2582		5.1821		1.3701		H		1		UNL1		0.1390
52		H		-2.2514		5.2635		-1.1766		H		1		UNL1		0.1398
53		H		-2.5582		3.5230		-1.3198		H		1		UNL1		0.1691
54		H		-1.1406		4.2380		-2.1066		H		1		UNL1		0.1395
@<TRIPOS>BOND
1		46		25		1
2		45		24		1
3		54		31		1
4		47		27		1
5		25		24		ar
6		25		26		ar
7		24		23		ar
8		53		31		1
9		31		52		1
10		31		29		1
11		32		1		1
12		27		26		ar
13		27		18		ar
14		26		21		ar
15		35		2		1
16		1		34		1
17		1		2		1
18		1		33		1
19		38		9		1
20		12		11		3
21		23		44		1
22		23		22		ar
23		9		8		ar
24		9		10		ar
25		37		8		1
26		11		10		1
27		2		3		1
28		8		7		ar
29		10		13		ar
30		4		3		ar
31		4		5		ar
32		3		28		ar
33		7		14		ar
34		7		6		1
35		13		39		1
36		13		14		ar
37		5		6		1
38		5		15		ar
39		14		40		1
40		6		36		1
41		28		16		ar
42		28		29		1
43		15		16		ar
44		16		17		1
45		17		18		1
46		29		48		1
47		29		30		1
48		18		19		ar
49		21		22		ar
50		21		20		ar
51		22		43		1
52		30		50		1
53		30		51		1
54		30		49		1
55		19		20		ar
56		19		41		1
57		20		42		1

