@<TRIPOS>MOLECULE
WHQ-2014-SQER-761-6
 43 46 0 0 0
SMALL
MULLIKEN_CHARGES
****
Gaussian 16 #p B3LYP/6-31G* opt
@<TRIPOS>ATOM
1		C		4.2048		3.1218		-0.4812		C.3		1		UNL1		-0.5199
2		C		2.7133		3.0867		-0.2985		C.ar		1		UNL1		0.0822
3		C		1.9347		4.2165		-0.0588		C.ar		1		UNL1		0.0145
4		N		0.6080		4.2053		0.1025		N.ar		1		UNL1		-0.4942
5		C		0.0265		2.9972		0.0194		C.ar		1		UNL1		0.6905
6		N		-1.3419		3.0255		0.1910		N.pl3		1		UNL1		-0.7682
7		C		-2.3188		2.0303		0.1797		C.ar		1		UNL1		0.3810
8		C		-2.0617		0.6634		-0.0360		C.ar		1		UNL1		-0.1645
9		C		-3.1115		-0.2467		-0.0280		C.ar		1		UNL1		-0.1586
10		C		-4.4349		0.1696		0.1918		C.ar		1		UNL1		0.1307
11		C		-5.5072		-0.7776		0.1973		C.1		1		UNL1		0.2275
12		N		-6.3820		-1.5458		0.2020		N.1		1		UNL1		-0.4857
13		C		-4.6898		1.5359		0.4070		C.ar		1		UNL1		-0.1408
14		C		-3.6479		2.4477		0.4004		C.ar		1		UNL1		-0.2049
15		N		0.6518		1.8320		-0.2058		N.ar		1		UNL1		-0.5468
16		C		1.9657		1.8972		-0.3585		C.ar		1		UNL1		0.5238
17		O		2.6678		0.7526		-0.5828		O.3		1		UNL1		-0.5686
18		C		1.9963		-0.4657		-0.7108		C.ar		1		UNL1		0.2920
19		C		1.4513		-0.8180		-1.9197		C.ar		1		UNL1		-0.1509
20		C		0.8447		-2.0837		-2.0735		C.ar		1		UNL1		-0.1589
21		C		0.8073		-2.9622		-1.0154		C.ar		1		UNL1		-0.1336
22		CL		0.0387		-4.5269		-1.2601		Cl		1		UNL1		-0.0055
23		C		1.3723		-2.6382		0.2534		C.ar		1		UNL1		0.1232
24		C		1.3610		-3.5164		1.3693		C.ar		1		UNL1		-0.1968
25		C		1.9264		-3.1428		2.5673		C.ar		1		UNL1		-0.1284
26		C		2.5346		-1.8740		2.7108		C.ar		1		UNL1		-0.1302
27		C		2.5646		-0.9963		1.6520		C.ar		1		UNL1		-0.1859
28		C		1.9863		-1.3473		0.4039		C.ar		1		UNL1		0.1201
29		H		4.7195		2.5195		0.2768		H		1		UNL1		0.1711
30		H		4.5001		2.7201		-1.4576		H		1		UNL1		0.1734
31		H		4.5766		4.1488		-0.4086		H		1		UNL1		0.1582
32		H		2.4122		5.1940		0.0060		H		1		UNL1		0.1492
33		H		-1.6694		3.9692		0.3551		H		1		UNL1		0.3481
34		H		-1.0489		0.3293		-0.2057		H		1		UNL1		0.1960
35		H		-2.9039		-1.2989		-0.1949		H		1		UNL1		0.1626
36		H		-5.7067		1.8738		0.5784		H		1		UNL1		0.1572
37		H		-3.8575		3.5016		0.5681		H		1		UNL1		0.1367
38		H		1.4864		-0.1233		-2.7521		H		1		UNL1		0.1509
39		H		0.4099		-2.3637		-3.0265		H		1		UNL1		0.1636
40		H		0.8984		-4.4910		1.2636		H		1		UNL1		0.1631
41		H		1.9069		-3.8288		3.4093		H		1		UNL1		0.1418
42		H		2.9799		-1.5934		3.6611		H		1		UNL1		0.1396
43		H		3.0363		-0.0252		1.7526		H		1		UNL1		0.1453
@<TRIPOS>BOND
1		39		20		1
2		38		19		1
3		20		19		ar
4		20		21		ar
5		19		18		ar
6		30		1		1
7		22		21		1
8		21		23		ar
9		18		17		1
10		18		28		ar
11		17		16		1
12		1		31		1
13		1		2		1
14		1		29		1
15		16		2		ar
16		16		15		ar
17		2		3		ar
18		15		5		ar
19		34		8		1
20		35		9		1
21		3		32		1
22		3		4		ar
23		8		9		ar
24		8		7		ar
25		9		10		ar
26		5		4		ar
27		5		6		1
28		7		6		1
29		7		14		ar
30		6		33		1
31		10		11		1
32		10		13		ar
33		11		12		3
34		23		28		ar
35		23		24		ar
36		14		13		ar
37		14		37		1
38		28		27		ar
39		13		36		1
40		40		24		1
41		24		25		ar
42		27		43		1
43		27		26		ar
44		25		26		ar
45		25		41		1
46		26		42		1

