@<TRIPOS>MOLECULE
WHQ-2014-SQER-761-67
 55 58 0 0 0
SMALL
MULLIKEN_CHARGES
****
Gaussian 16 #p B3LYP/6-31G* opt
@<TRIPOS>ATOM
1		C		-6.5071		-0.8709		0.1398		C.3		1		UNL1		-0.2826
2		N		-5.6303		0.2805		0.0039		N.pl3		1		UNL1		-0.6470
3		C		-4.2698		0.1730		0.0127		C.ar		1		UNL1		0.5099
4		N		-3.7908		-1.0828		0.0334		N.ar		1		UNL1		-0.6095
5		C		-2.4601		-1.2220		0.0357		C.ar		1		UNL1		0.7095
6		N		-2.0477		-2.5416		0.0374		N.pl3		1		UNL1		-0.7784
7		C		-0.7888		-3.1380		0.0629		C.ar		1		UNL1		0.3822
8		C		-0.7550		-4.5478		0.0267		C.ar		1		UNL1		-0.2057
9		C		0.4474		-5.2339		0.0492		C.ar		1		UNL1		-0.1411
10		C		1.6627		-4.5288		0.1090		C.ar		1		UNL1		0.1305
11		C		2.9086		-5.2317		0.1304		C.1		1		UNL1		0.2261
12		N		3.9207		-5.8069		0.1467		N.1		1		UNL1		-0.4854
13		C		1.6299		-3.1249		0.1467		C.ar		1		UNL1		-0.1590
14		C		0.4268		-2.4306		0.1246		C.ar		1		UNL1		-0.1650
15		N		-1.5584		-0.2387		0.0488		N.ar		1		UNL1		-0.5730
16		C		-2.0672		0.9952		0.0225		C.ar		1		UNL1		0.5045
17		O		-1.1775		2.0363		0.0783		O.3		1		UNL1		-0.5747
18		C		0.1762		1.8303		-0.1473		C.ar		1		UNL1		0.3742
19		C		0.6313		1.3033		-1.3821		C.ar		1		UNL1		-0.1428
20		C		1.9807		1.2217		-1.6253		C.ar		1		UNL1		-0.2021
21		C		2.9295		1.6664		-0.6625		C.ar		1		UNL1		0.1414
22		C		4.3232		1.6000		-0.8976		C.ar		1		UNL1		-0.2158
23		C		5.2230		2.0477		0.0571		C.ar		1		UNL1		0.1316
24		C		6.6327		1.9833		-0.1948		C.1		1		UNL1		0.2360
25		N		7.7784		1.9384		-0.3928		N.1		1		UNL1		-0.4775
26		C		4.7512		2.5789		1.2926		C.ar		1		UNL1		-0.1428
27		C		3.4025		2.6522		1.5391		C.ar		1		UNL1		-0.1942
28		C		2.4547		2.2042		0.5786		C.ar		1		UNL1		0.1411
29		C		1.0570		2.2719		0.8107		C.ar		1		UNL1		-0.2485
30		C		-3.4218		1.3209		-0.0228		C.ar		1		UNL1		0.0417
31		C		-3.9452		2.7518		-0.0923		C.3		1		UNL1		-0.1505
32		C		-3.4357		3.5203		-1.3291		C.3		1		UNL1		-0.4465
33		C		-3.6885		3.5386		1.2092		C.3		1		UNL1		-0.4417
34		H		-6.2980		-1.6010		-0.6458		H		1		UNL1		0.1798
35		H		-7.5396		-0.5271		0.0393		H		1		UNL1		0.1514
36		H		-6.3882		-1.3738		1.1082		H		1		UNL1		0.1642
37		H		-6.0265		1.1856		0.1954		H		1		UNL1		0.3356
38		H		-2.8384		-3.1728		0.0248		H		1		UNL1		0.3428
39		H		-1.6882		-5.1045		-0.0207		H		1		UNL1		0.1341
40		H		0.4549		-6.3187		0.0202		H		1		UNL1		0.1564
41		H		2.5624		-2.5714		0.1950		H		1		UNL1		0.1579
42		H		0.4142		-1.3512		0.1563		H		1		UNL1		0.1961
43		H		-0.0915		0.9706		-2.1183		H		1		UNL1		0.1543
44		H		2.3394		0.8195		-2.5691		H		1		UNL1		0.1500
45		H		4.6877		1.1954		-1.8372		H		1		UNL1		0.1621
46		H		5.4702		2.9225		2.0289		H		1		UNL1		0.1597
47		H		3.0432		3.0578		2.4811		H		1		UNL1		0.1461
48		H		0.6762		2.6778		1.7427		H		1		UNL1		0.1488
49		H		-5.0341		2.6994		-0.2181		H		1		UNL1		0.1104
50		H		-3.9268		4.4986		-1.3912		H		1		UNL1		0.1418
51		H		-2.3569		3.6859		-1.2804		H		1		UNL1		0.1681
52		H		-3.6581		2.9709		-2.2506		H		1		UNL1		0.1455
53		H		-4.1164		3.0215		2.0756		H		1		UNL1		0.1405
54		H		-4.1417		4.5353		1.1497		H		1		UNL1		0.1423
55		H		-2.6164		3.6628		1.3848		H		1		UNL1		0.1673
@<TRIPOS>BOND
1		44		20		1
2		52		32		1
3		43		19		1
4		45		22		1
5		20		19		ar
6		20		21		ar
7		50		32		1
8		19		18		ar
9		32		51		1
10		32		31		1
11		22		21		ar
12		22		23		ar
13		21		28		ar
14		34		1		1
15		25		24		3
16		49		31		1
17		24		23		1
18		18		17		1
19		18		29		ar
20		31		30		1
21		31		33		1
22		30		3		ar
23		30		16		ar
24		39		8		1
25		2		3		1
26		2		1		1
27		2		37		1
28		3		4		ar
29		40		9		1
30		16		15		ar
31		16		17		1
32		38		6		1
33		8		9		ar
34		8		7		ar
35		4		5		ar
36		5		6		1
37		5		15		ar
38		6		7		1
39		35		1		1
40		9		10		ar
41		23		26		ar
42		7		14		ar
43		10		11		1
44		10		13		ar
45		14		13		ar
46		14		42		1
47		11		12		3
48		1		36		1
49		13		41		1
50		28		29		ar
51		28		27		ar
52		29		48		1
53		54		33		1
54		33		55		1
55		33		53		1
56		26		27		ar
57		26		46		1
58		27		47		1

