@<TRIPOS>MOLECULE
WHQ-2015-BMC-624-3-3s
 44 46 0 0 0
SMALL
MULLIKEN_CHARGES
****
Gaussian 16 #p B3LYP/6-31G* opt
@<TRIPOS>ATOM
1		C		-1.4899		3.5667		0.0003		C.3		1		UNL1		-0.5313
2		C		-0.0700		3.0740		0.0002		C.ar		1		UNL1		0.0818
3		C		1.0383		3.9159		0.0006		C.ar		1		UNL1		0.0164
4		N		2.3089		3.5001		0.0005		N.ar		1		UNL1		-0.4940
5		C		2.4837		2.1698		-0.0000		C.ar		1		UNL1		0.6941
6		N		3.8091		1.7864		-0.0002		N.pl3		1		UNL1		-0.7686
7		C		4.4424		0.5448		-0.0001		C.ar		1		UNL1		0.3834
8		C		5.8529		0.5547		0.0005		C.ar		1		UNL1		-0.2039
9		C		6.5744		-0.6269		0.0006		C.ar		1		UNL1		-0.1400
10		C		5.9058		-1.8643		0.0001		C.ar		1		UNL1		0.1312
11		C		6.6456		-3.0889		0.0003		C.1		1		UNL1		0.2283
12		N		7.2500		-4.0839		0.0004		N.1		1		UNL1		-0.4834
13		C		4.5015		-1.8757		-0.0005		C.ar		1		UNL1		-0.1565
14		C		3.7729		-0.6927		-0.0007		C.ar		1		UNL1		-0.1616
15		N		1.5102		1.2440		-0.0005		N.ar		1		UNL1		-0.5735
16		C		0.2662		1.7073		-0.0003		C.ar		1		UNL1		0.5587
17		O		-0.7574		0.8221		-0.0007		O.2		1		UNL1		-0.5292
18		C		-0.4470		-0.5770		-0.0009		C.3		1		UNL1		-0.1134
19		C		-1.7215		-1.4210		-0.0005		C.2		1		UNL1		0.5840
20		O		-1.6077		-2.6380		-0.0002		O.2		1		UNL1		-0.4982
21		N		-2.8919		-0.7131		-0.0004		N.am		1		UNL1		-0.7404
22		C		-4.2074		-1.2062		-0.0000		C.ar		1		UNL1		0.3692
23		C		-4.5121		-2.5785		0.0003		C.ar		1		UNL1		-0.1554
24		C		-5.8377		-3.0055		0.0007		C.ar		1		UNL1		-0.1436
25		C		-6.8879		-2.0878		0.0008		C.ar		1		UNL1		-0.1211
26		C		-6.6046		-0.7230		0.0005		C.ar		1		UNL1		-0.1378
27		C		-5.2812		-0.2950		0.0001		C.ar		1		UNL1		-0.1454
28		CL		-4.9639		1.4443		-0.0004		Cl		1		UNL1		-0.0222
29		H		-2.0403		3.2152		0.8812		H		1		UNL1		0.1752
30		H		-2.0401		3.2162		-0.8811		H		1		UNL1		0.1752
31		H		-1.5156		4.6609		0.0010		H		1		UNL1		0.1616
32		H		0.8928		4.9957		0.0011		H		1		UNL1		0.1511
33		H		4.4183		2.5950		0.0003		H		1		UNL1		0.3498
34		H		6.3816		1.5051		0.0009		H		1		UNL1		0.1391
35		H		7.6592		-0.6009		0.0011		H		1		UNL1		0.1594
36		H		3.9763		-2.8256		-0.0009		H		1		UNL1		0.1613
37		H		2.6936		-0.7139		-0.0012		H		1		UNL1		0.1845
38		H		0.1405		-0.8394		-0.8860		H		1		UNL1		0.1988
39		H		0.1413		-0.8396		0.8836		H		1		UNL1		0.1988
40		H		-2.7909		0.2952		-0.0006		H		1		UNL1		0.3773
41		H		-3.6957		-3.2869		0.0003		H		1		UNL1		0.1983
42		H		-6.0456		-4.0716		0.0010		H		1		UNL1		0.1441
43		H		-7.9201		-2.4243		0.0011		H		1		UNL1		0.1410
44		H		-7.4000		0.0145		0.0005		H		1		UNL1		0.1569
@<TRIPOS>BOND
1		38		18		1
2		30		1		1
3		37		14		1
4		36		13		1
5		18		17		1
6		18		19		1
7		18		39		1
8		17		16		1
9		14		13		ar
10		14		7		ar
11		40		21		1
12		13		10		ar
13		19		21		1
14		19		20		2
15		15		16		ar
16		15		5		ar
17		21		22		1
18		28		27		1
19		16		2		ar
20		6		7		1
21		6		5		1
22		6		33		1
23		7		8		ar
24		5		4		ar
25		22		27		ar
26		22		23		ar
27		27		26		ar
28		10		11		1
29		10		9		ar
30		2		1		1
31		2		3		ar
32		11		12		3
33		41		23		1
34		23		24		ar
35		1		31		1
36		1		29		1
37		26		44		1
38		26		25		ar
39		8		9		ar
40		8		34		1
41		4		3		ar
42		9		35		1
43		3		32		1
44		24		25		ar
45		24		42		1
46		25		43		1

