@<TRIPOS>MOLECULE
WHQ-2013-BMC-6477-3-7k
 50 52 0 0 0
SMALL
MULLIKEN_CHARGES
****
Gaussian 16 #p B3LYP/6-31G* opt
@<TRIPOS>ATOM
1		C		6.7277		-0.6771		2.5795		C.3		1		UNL1		-0.2194
2		O		6.4068		0.1448		1.4663		O.3		1		UNL1		-0.5018
3		C		5.4338		-0.2718		0.6111		C.ar		1		UNL1		0.3807
4		C		5.1459		0.5919		-0.4542		C.ar		1		UNL1		-0.1585
5		C		4.1662		0.2524		-1.3805		C.ar		1		UNL1		-0.2006
6		C		3.4461		-0.9496		-1.2735		C.ar		1		UNL1		0.1347
7		C		2.4197		-1.3140		-2.3234		C.3		1		UNL1		-0.5461
8		S		0.7527		-1.8701		-1.7363		S.3		1		UNL1		0.1907
9		C		-0.0096		-0.3931		-1.1010		C.ar		1		UNL1		0.3294
10		N		-1.3014		-0.4243		-0.9751		N.ar		1		UNL1		-0.5079
11		C		-1.9139		0.6970		-0.4630		C.ar		1		UNL1		0.1454
12		C		-3.4218		0.5466		-0.4451		C.2		1		UNL1		0.3631
13		O		-4.1285		1.3894		-0.9789		O.2		1		UNL1		-0.4508
14		C		-4.0299		-0.6823		0.1531		C.ar		1		UNL1		0.0304
15		C		-5.3198		-1.0497		-0.2667		C.ar		1		UNL1		-0.1634
16		C		-5.9589		-2.1683		0.2557		C.ar		1		UNL1		-0.1314
17		C		-5.3197		-2.9388		1.2326		C.ar		1		UNL1		-0.1209
18		C		-4.0496		-2.5858		1.6856		C.ar		1		UNL1		-0.1971
19		C		-3.4270		-1.4686		1.1421		C.ar		1		UNL1		0.3438
20		F		-2.2153		-1.1302		1.6272		F		1		UNL1		-0.2860
21		C		-1.2753		1.8578		-0.0913		C.ar		1		UNL1		0.0680
22		C		-1.9730		3.0824		0.4776		C.3		1		UNL1		-0.1438
23		C		-1.8594		4.2861		-0.4793		C.3		1		UNL1		-0.4558
24		C		-1.4615		3.4290		1.8912		C.3		1		UNL1		-0.4579
25		C		0.1794		1.8910		-0.2370		C.ar		1		UNL1		0.5794
26		O		0.9386		2.8161		0.0302		O.2		1		UNL1		-0.5225
27		N		0.7313		0.6906		-0.7480		N.ar		1		UNL1		-0.6508
28		C		3.7428		-1.7995		-0.2021		C.ar		1		UNL1		-0.1706
29		C		4.7240		-1.4752		0.7338		C.ar		1		UNL1		-0.1922
30		H		7.5136		-0.1493		3.1221		H		1		UNL1		0.1763
31		H		7.1031		-1.6584		2.2610		H		1		UNL1		0.1545
32		H		5.8617		-0.8166		3.2394		H		1		UNL1		0.1578
33		H		5.6964		1.5235		-0.5339		H		1		UNL1		0.1524
34		H		3.9625		0.9320		-2.2055		H		1		UNL1		0.1429
35		H		2.7440		-2.1854		-2.9047		H		1		UNL1		0.2066
36		H		2.2813		-0.4960		-3.0369		H		1		UNL1		0.1955
37		H		-5.7974		-0.4297		-1.0183		H		1		UNL1		0.1685
38		H		-6.9503		-2.4411		-0.0932		H		1		UNL1		0.1408
39		H		-5.8121		-3.8133		1.6487		H		1		UNL1		0.1445
40		H		-3.5348		-3.1530		2.4539		H		1		UNL1		0.1505
41		H		-3.0353		2.8423		0.5619		H		1		UNL1		0.1498
42		H		-2.3048		4.0476		-1.4509		H		1		UNL1		0.1522
43		H		-2.3968		5.1461		-0.0623		H		1		UNL1		0.1378
44		H		-0.8145		4.5724		-0.6278		H		1		UNL1		0.1710
45		H		-2.0395		4.2681		2.2964		H		1		UNL1		0.1377
46		H		-1.5810		2.5786		2.5731		H		1		UNL1		0.1361
47		H		-0.4065		3.7116		1.8719		H		1		UNL1		0.1807
48		H		1.7477		0.6727		-0.7742		H		1		UNL1		0.3665
49		H		3.1914		-2.7290		-0.0869		H		1		UNL1		0.1489
50		H		4.9233		-2.1589		1.5509		H		1		UNL1		0.1409
@<TRIPOS>BOND
1		36		7		1
2		35		7		1
3		7		8		1
4		7		6		1
5		34		5		1
6		8		9		1
7		42		23		1
8		5		6		ar
9		5		4		ar
10		6		28		ar
11		9		10		ar
12		9		27		ar
13		37		15		1
14		13		12		2
15		10		11		ar
16		48		27		1
17		27		25		ar
18		44		23		1
19		33		4		1
20		23		43		1
21		23		22		1
22		11		12		1
23		11		21		ar
24		4		3		ar
25		12		14		1
26		15		14		ar
27		15		16		ar
28		25		21		ar
29		25		26		2
30		28		49		1
31		28		29		ar
32		38		16		1
33		21		22		1
34		14		19		ar
35		16		17		ar
36		22		41		1
37		22		24		1
38		3		29		ar
39		3		2		1
40		29		50		1
41		19		20		1
42		19		18		ar
43		17		39		1
44		17		18		ar
45		2		1		1
46		18		40		1
47		47		24		1
48		24		45		1
49		24		46		1
50		31		1		1
51		1		30		1
52		1		32		1

