@<TRIPOS>MOLECULE
WHQ-2014-SQER-761-25
 43 46 0 0 0
SMALL
MULLIKEN_CHARGES
****
Gaussian 16 #p B3LYP/6-31G* opt
@<TRIPOS>ATOM
1		C		1.6461		4.8997		0.6725		C.3		1		UNL1		-0.5213
2		C		2.0758		3.4619		0.5977		C.ar		1		UNL1		0.0871
3		C		3.3843		3.0492		0.3935		C.ar		1		UNL1		0.0148
4		N		3.7795		1.7676		0.3085		N.ar		1		UNL1		-0.4864
5		C		2.8107		0.8601		0.4332		C.ar		1		UNL1		0.7007
6		N		3.0901		-0.4891		0.3574		N.pl3		1		UNL1		-0.7704
7		C		4.2795		-1.1902		0.1597		C.ar		1		UNL1		0.3830
8		C		5.5393		-0.5854		-0.0078		C.ar		1		UNL1		-0.1599
9		C		6.6650		-1.3773		-0.1967		C.ar		1		UNL1		-0.1536
10		C		6.5739		-2.7787		-0.2247		C.ar		1		UNL1		0.1309
11		C		7.7419		-3.5818		-0.4196		C.1		1		UNL1		0.2269
12		N		8.6915		-4.2365		-0.5777		N.1		1		UNL1		-0.4855
13		C		5.3140		-3.3807		-0.0576		C.ar		1		UNL1		-0.1406
14		C		4.1880		-2.5971		0.1312		C.ar		1		UNL1		-0.2063
15		N		1.5000		1.1189		0.6398		N.ar		1		UNL1		-0.5630
16		C		1.1662		2.3906		0.7159		C.ar		1		UNL1		0.5346
17		O		-0.1365		2.7273		0.9354		O.3		1		UNL1		-0.5601
18		C		-1.1036		1.7318		0.9525		C.ar		1		UNL1		0.3359
19		C		-1.4781		1.1861		2.1994		C.ar		1		UNL1		-0.1486
20		C		-2.4965		0.2686		2.2700		C.ar		1		UNL1		-0.2016
21		C		-3.1843		-0.1435		1.0980		C.ar		1		UNL1		0.1549
22		C		-4.2392		-1.0921		1.1620		C.ar		1		UNL1		-0.2262
23		C		-4.8919		-1.4750		0.0165		C.ar		1		UNL1		0.0841
24		BR		-6.3090		-2.7523		0.1073		Br		1		UNL1		-0.1184
25		C		-4.5368		-0.9416		-1.2425		C.ar		1		UNL1		-0.1503
26		C		-3.5188		-0.0204		-1.3296		C.ar		1		UNL1		-0.1874
27		C		-2.8124		0.4078		-0.1743		C.ar		1		UNL1		0.0940
28		C		-1.7515		1.3586		-0.2049		C.ar		1		UNL1		-0.0079
29		BR		-1.1970		2.1451		-1.8486		Br		1		UNL1		-0.0980
30		H		2.5016		5.5659		0.5238		H		1		UNL1		0.1581
31		H		1.1939		5.1362		1.6430		H		1		UNL1		0.1715
32		H		0.8946		5.1275		-0.0923		H		1		UNL1		0.1790
33		H		4.1732		3.7927		0.2863		H		1		UNL1		0.1495
34		H		2.2553		-1.0515		0.4611		H		1		UNL1		0.3479
35		H		5.6164		0.4920		0.0120		H		1		UNL1		0.1898
36		H		7.6336		-0.9044		-0.3252		H		1		UNL1		0.1576
37		H		5.2266		-4.4622		-0.0772		H		1		UNL1		0.1574
38		H		3.2189		-3.0740		0.2589		H		1		UNL1		0.1364
39		H		-0.9458		1.5149		3.0858		H		1		UNL1		0.1543
40		H		-2.7891		-0.1530		3.2273		H		1		UNL1		0.1493
41		H		-4.5211		-1.5084		2.1235		H		1		UNL1		0.1590
42		H		-5.0690		-1.2619		-2.1312		H		1		UNL1		0.1617
43		H		-3.2445		0.3895		-2.2948		H		1		UNL1		0.1671
@<TRIPOS>BOND
1		43		26		1
2		42		25		1
3		29		28		1
4		26		25		ar
5		26		27		ar
6		25		23		ar
7		12		11		3
8		11		10		1
9		36		9		1
10		10		9		ar
11		10		13		ar
12		28		27		ar
13		28		18		ar
14		9		8		ar
15		27		21		ar
16		32		1		1
17		37		13		1
18		13		14		ar
19		8		35		1
20		8		7		ar
21		23		24		1
22		23		22		ar
23		14		7		ar
24		14		38		1
25		7		6		1
26		33		3		1
27		4		3		ar
28		4		5		ar
29		6		5		1
30		6		34		1
31		3		2		ar
32		5		15		ar
33		30		1		1
34		2		1		1
35		2		16		ar
36		15		16		ar
37		1		31		1
38		16		17		1
39		17		18		1
40		18		19		ar
41		21		22		ar
42		21		20		ar
43		22		41		1
44		19		20		ar
45		19		39		1
46		20		40		1

