@<TRIPOS>MOLECULE
WHQ-2014-SQER-761-3
 40 43 0 0 0
SMALL
MULLIKEN_CHARGES
****
Gaussian 16 #p B3LYP/6-31G* opt
@<TRIPOS>ATOM
1		N		9.0824		0.3647		-0.6270		N.1		1		UNL1		-0.4858
2		C		7.9436		0.3095		-0.3911		C.1		1		UNL1		0.2269
3		C		6.5444		0.2423		-0.0998		C.ar		1		UNL1		0.1309
4		C		5.6272		-0.1645		-1.0829		C.ar		1		UNL1		-0.1535
5		C		4.2660		-0.2343		-0.8141		C.ar		1		UNL1		-0.1596
6		C		3.7876		0.1072		0.4648		C.ar		1		UNL1		0.3826
7		N		2.4444		0.0725		0.8396		N.pl3		1		UNL1		-0.7666
8		C		1.2953		-0.2664		0.1560		C.ar		1		UNL1		0.6979
9		N		1.3600		-0.6560		-1.1239		N.ar		1		UNL1		-0.4848
10		C		0.1805		-0.9588		-1.6828		C.ar		1		UNL1		0.0668
11		C		-1.0347		-0.8905		-1.0187		C.ar		1		UNL1		-0.2168
12		C		-0.9601		-0.4678		0.3200		C.ar		1		UNL1		0.5398
13		O		-2.0407		-0.3261		1.1324		O.3		1		UNL1		-0.5333
14		C		-3.3120		-0.6681		0.6699		C.ar		1		UNL1		0.2402
15		C		-3.7243		-1.9787		0.7183		C.ar		1		UNL1		-0.1587
16		C		-5.0381		-2.3140		0.3134		C.ar		1		UNL1		-0.1496
17		C		-5.9038		-1.3367		-0.1217		C.ar		1		UNL1		-0.1779
18		C		-5.5008		0.0252		-0.1675		C.ar		1		UNL1		0.1220
19		C		-6.3736		1.0573		-0.6057		C.ar		1		UNL1		-0.1948
20		C		-5.9585		2.3691		-0.6354		C.ar		1		UNL1		-0.1292
21		C		-4.6480		2.7135		-0.2233		C.ar		1		UNL1		-0.1350
22		C		-3.7720		1.7422		0.2066		C.ar		1		UNL1		-0.1883
23		C		-4.1725		0.3802		0.2403		C.ar		1		UNL1		0.1130
24		N		0.1834		-0.1560		0.9086		N.ar		1		UNL1		-0.5460
25		C		4.7085		0.5155		1.4516		C.ar		1		UNL1		-0.2058
26		C		6.0642		0.5829		1.1772		C.ar		1		UNL1		-0.1406
27		H		5.9893		-0.4292		-2.0714		H		1		UNL1		0.1573
28		H		3.5662		-0.5480		-1.5749		H		1		UNL1		0.1894
29		H		2.2420		0.3444		1.7934		H		1		UNL1		0.3491
30		H		0.2175		-1.2732		-2.7242		H		1		UNL1		0.1565
31		H		-1.9691		-1.1422		-1.5009		H		1		UNL1		0.1647
32		H		-3.0383		-2.7416		1.0726		H		1		UNL1		0.1488
33		H		-5.3566		-3.3516		0.3527		H		1		UNL1		0.1419
34		H		-6.9132		-1.5942		-0.4323		H		1		UNL1		0.1366
35		H		-7.3807		0.7903		-0.9165		H		1		UNL1		0.1364
36		H		-6.6376		3.1475		-0.9722		H		1		UNL1		0.1374
37		H		-4.3346		3.7535		-0.2444		H		1		UNL1		0.1385
38		H		-2.7723		2.0051		0.5353		H		1		UNL1		0.1546
39		H		4.3489		0.7814		2.4429		H		1		UNL1		0.1374
40		H		6.7597		0.8991		1.9479		H		1		UNL1		0.1574
@<TRIPOS>BOND
1		30		10		1
2		27		4		1
3		10		9		ar
4		10		11		ar
5		28		5		1
6		31		11		1
7		9		8		ar
8		4		5		ar
9		4		3		ar
10		11		12		ar
11		36		20		1
12		35		19		1
13		5		6		ar
14		20		19		ar
15		20		21		ar
16		1		2		3
17		19		18		ar
18		34		17		1
19		2		3		1
20		37		21		1
21		21		22		ar
22		18		17		ar
23		18		23		ar
24		17		16		ar
25		3		26		ar
26		8		7		1
27		8		24		ar
28		22		23		ar
29		22		38		1
30		23		14		ar
31		16		33		1
32		16		15		ar
33		12		24		ar
34		12		13		1
35		6		7		1
36		6		25		ar
37		14		15		ar
38		14		13		1
39		15		32		1
40		7		29		1
41		26		25		ar
42		26		40		1
43		25		39		1

