@<TRIPOS>MOLECULE
WHQ-2014-SQER-761-42
 47 50 0 0 0
SMALL
MULLIKEN_CHARGES
****
Gaussian 16 #p B3LYP/6-31G* opt
@<TRIPOS>ATOM
1		C		0.0821		4.7551		-0.6404		C.3		1		UNL1		-0.4510
2		C		-0.4643		4.2637		0.7134		C.3		1		UNL1		-0.3313
3		C		-1.0185		2.8621		0.6449		C.ar		1		UNL1		0.0917
4		C		-2.3471		2.5105		0.4183		C.ar		1		UNL1		0.0667
5		CL		-3.5597		3.7698		0.2242		Cl		1		UNL1		0.0197
6		N		-2.8148		1.2703		0.3259		N.ar		1		UNL1		-0.4900
7		C		-1.9121		0.2965		0.4576		C.ar		1		UNL1		0.7044
8		N		-2.2887		-1.0229		0.3732		N.pl3		1		UNL1		-0.7724
9		C		-3.5269		-1.6356		0.1572		C.ar		1		UNL1		0.3809
10		C		-3.5334		-3.0444		0.1242		C.ar		1		UNL1		-0.2056
11		C		-4.7096		-3.7459		-0.0823		C.ar		1		UNL1		-0.1399
12		C		-5.9207		-3.0549		-0.2628		C.ar		1		UNL1		0.1328
13		C		-7.1401		-3.7731		-0.4763		C.1		1		UNL1		0.2293
14		N		-8.1307		-4.3593		-0.6494		N.1		1		UNL1		-0.4818
15		C		-5.9134		-1.6510		-0.2301		C.ar		1		UNL1		-0.1535
16		C		-4.7366		-0.9412		-0.0234		C.ar		1		UNL1		-0.1619
17		N		-0.5927		0.4724		0.6777		N.ar		1		UNL1		-0.5638
18		C		-0.1887		1.7243		0.7606		C.ar		1		UNL1		0.5457
19		O		1.1322		1.9730		0.9907		O.3		1		UNL1		-0.5627
20		C		2.0341		0.9205		1.0020		C.ar		1		UNL1		0.3427
21		C		2.3838		0.3581		2.2489		C.ar		1		UNL1		-0.1493
22		C		3.3468		-0.6171		2.3145		C.ar		1		UNL1		-0.1983
23		C		4.0005		-1.0704		1.1377		C.ar		1		UNL1		0.1533
24		C		4.9956		-2.0759		1.1955		C.ar		1		UNL1		-0.2202
25		C		5.6315		-2.5132		0.0464		C.ar		1		UNL1		0.1403
26		C		6.6359		-3.5335		0.1211		C.1		1		UNL1		0.2379
27		N		7.4510		-4.3617		0.1749		N.1		1		UNL1		-0.4713
28		C		5.2867		-1.9485		-1.2140		C.ar		1		UNL1		-0.1404
29		C		4.3255		-0.9717		-1.2959		C.ar		1		UNL1		-0.1922
30		C		3.6535		-0.5017		-0.1350		C.ar		1		UNL1		0.0977
31		C		2.6503		0.5092		-0.1610		C.ar		1		UNL1		-0.0105
32		BR		2.1262		1.3216		-1.8010		Br		1		UNL1		-0.0825
33		H		0.5121		5.7574		-0.5370		H		1		UNL1		0.1515
34		H		0.8622		4.0833		-1.0121		H		1		UNL1		0.1666
35		H		-0.7146		4.8028		-1.3904		H		1		UNL1		0.1573
36		H		-1.2457		4.9430		1.0657		H		1		UNL1		0.1678
37		H		0.3393		4.2860		1.4567		H		1		UNL1		0.1626
38		H		-1.4996		-1.6467		0.4846		H		1		UNL1		0.3504
39		H		-2.6024		-3.5893		0.2624		H		1		UNL1		0.1381
40		H		-4.6990		-4.8307		-0.1053		H		1		UNL1		0.1603
41		H		-6.8439		-1.1099		-0.3689		H		1		UNL1		0.1624
42		H		-4.7433		0.1388		-0.0008		H		1		UNL1		0.1991
43		H		1.8780		0.7208		3.1374		H		1		UNL1		0.1606
44		H		3.6216		-1.0533		3.2705		H		1		UNL1		0.1557
45		H		5.2581		-2.5049		2.1578		H		1		UNL1		0.1663
46		H		5.7921		-2.2991		-2.1076		H		1		UNL1		0.1664
47		H		4.0673		-0.5460		-2.2585		H		1		UNL1		0.1707
@<TRIPOS>BOND
1		47		29		1
2		46		28		1
3		32		31		1
4		35		1		1
5		29		28		ar
6		29		30		ar
7		28		25		ar
8		34		1		1
9		14		13		3
10		1		33		1
11		1		2		1
12		13		12		1
13		41		15		1
14		12		15		ar
15		12		11		ar
16		15		16		ar
17		31		30		ar
18		31		20		ar
19		30		23		ar
20		40		11		1
21		11		10		ar
22		16		42		1
23		16		9		ar
24		25		26		1
25		25		24		ar
26		26		27		3
27		10		9		ar
28		10		39		1
29		9		8		1
30		5		4		1
31		6		4		ar
32		6		7		ar
33		8		7		1
34		8		38		1
35		4		3		ar
36		7		17		ar
37		3		2		1
38		3		18		ar
39		17		18		ar
40		2		36		1
41		2		37		1
42		18		19		1
43		19		20		1
44		20		21		ar
45		23		24		ar
46		23		22		ar
47		24		45		1
48		21		22		ar
49		21		43		1
50		22		44		1

