@<TRIPOS>MOLECULE
WHQ-2014-SQER-761-35
 43 46 0 0 0
SMALL
MULLIKEN_CHARGES
****
Gaussian 16 #p B3LYP/6-31G* opt
@<TRIPOS>ATOM
1		C		1.5516		4.7064		-0.0065		C.3		1		UNL1		-0.5168
2		C		1.9199		3.2493		-0.0133		C.ar		1		UNL1		0.0878
3		C		3.2016		2.7114		0.0462		C.ar		1		UNL1		0.0724
4		CL		4.6007		3.7751		0.1397		Cl		1		UNL1		0.0141
5		N		3.4952		1.4144		0.0384		N.ar		1		UNL1		-0.4919
6		C		2.4549		0.5826		-0.0318		C.ar		1		UNL1		0.7000
7		N		2.6475		-0.7796		-0.0445		N.pl3		1		UNL1		-0.7716
8		C		3.8013		-1.5666		0.0055		C.ar		1		UNL1		0.3810
9		C		3.6118		-2.9629		-0.0209		C.ar		1		UNL1		-0.2058
10		C		4.6918		-3.8288		0.0230		C.ar		1		UNL1		-0.1401
11		C		6.0009		-3.3208		0.0950		C.ar		1		UNL1		0.1323
12		C		7.1217		-4.2095		0.1404		C.1		1		UNL1		0.2287
13		N		8.0318		-4.9344		0.1769		N.1		1		UNL1		-0.4829
14		C		6.1892		-1.9294		0.1216		C.ar		1		UNL1		-0.1537
15		C		5.1098		-1.0552		0.0778		C.ar		1		UNL1		-0.1623
16		N		1.1577		0.9461		-0.0935		N.ar		1		UNL1		-0.5618
17		C		0.9238		2.2449		-0.0825		C.ar		1		UNL1		0.5382
18		O		-0.3543		2.6944		-0.1272		O.3		1		UNL1		-0.5617
19		C		-1.4122		1.7941		-0.2871		C.ar		1		UNL1		0.3589
20		C		-1.5926		1.1325		-1.5239		C.ar		1		UNL1		-0.1389
21		C		-2.6927		0.3285		-1.7028		C.ar		1		UNL1		-0.2058
22		C		-3.6519		0.1565		-0.6670		C.ar		1		UNL1		0.1459
23		C		-4.7950		-0.6693		-0.8332		C.ar		1		UNL1		-0.2207
24		C		-5.6971		-0.8033		0.1946		C.ar		1		UNL1		0.0792
25		BR		-7.2353		-1.9165		-0.0290		Br		1		UNL1		-0.1236
26		C		-5.5202		-0.1345		1.4279		C.ar		1		UNL1		-0.1518
27		C		-4.4194		0.6713		1.6072		C.ar		1		UNL1		-0.1899
28		C		-3.4575		0.8411		0.5761		C.ar		1		UNL1		0.1345
29		C		-2.3122		1.6644		0.7396		C.ar		1		UNL1		-0.2358
30		H		0.9520		4.9598		-0.8879		H		1		UNL1		0.1750
31		H		0.9429		4.9514		0.8719		H		1		UNL1		0.1746
32		H		2.4400		5.3384		0.0028		H		1		UNL1		0.1816
33		H		1.7698		-1.2813		-0.0930		H		1		UNL1		0.3509
34		H		2.6035		-3.3670		-0.0762		H		1		UNL1		0.1382
35		H		4.5299		-4.9015		0.0020		H		1		UNL1		0.1594
36		H		7.1964		-1.5289		0.1774		H		1		UNL1		0.1616
37		H		5.2666		0.0134		0.0992		H		1		UNL1		0.1990
38		H		-0.8628		1.2709		-2.3143		H		1		UNL1		0.1484
39		H		-2.8436		-0.1842		-2.6491		H		1		UNL1		0.1455
40		H		-4.9489		-1.1898		-1.7729		H		1		UNL1		0.1563
41		H		-6.2522		-0.2628		2.2175		H		1		UNL1		0.1586
42		H		-4.2766		1.1890		2.5523		H		1		UNL1		0.1455
43		H		-2.1483		2.1961		1.6719		H		1		UNL1		0.1471
@<TRIPOS>BOND
1		39		21		1
2		38		20		1
3		40		23		1
4		21		20		ar
5		21		22		ar
6		20		19		ar
7		30		1		1
8		23		22		ar
9		23		24		ar
10		22		28		ar
11		19		18		1
12		19		29		ar
13		18		17		1
14		16		17		ar
15		16		6		ar
16		33		7		1
17		17		2		ar
18		34		9		1
19		7		6		1
20		7		8		1
21		6		5		ar
22		25		24		1
23		9		8		ar
24		9		10		ar
25		2		1		1
26		2		3		ar
27		1		32		1
28		1		31		1
29		35		10		1
30		8		15		ar
31		10		11		ar
32		5		3		ar
33		3		4		1
34		15		37		1
35		15		14		ar
36		11		14		ar
37		11		12		1
38		14		36		1
39		12		13		3
40		24		26		ar
41		28		29		ar
42		28		27		ar
43		29		43		1
44		26		27		ar
45		26		41		1
46		27		42		1

