@<TRIPOS>MOLECULE
WHQ-2014-SQER-761-12
 43 46 0 0 0
SMALL
MULLIKEN_CHARGES
****
Gaussian 16 #p B3LYP/6-31G* opt
@<TRIPOS>ATOM
1		C		-2.1276		3.1404		-0.6121		C.3		1		UNL1		-0.5387
2		C		-0.7203		2.6943		-0.3198		C.ar		1		UNL1		0.1203
3		C		0.2596		3.5770		0.1468		C.ar		1		UNL1		0.0128
4		N		1.5309		3.2505		0.3729		N.ar		1		UNL1		-0.4857
5		C		1.8529		1.9697		0.1113		C.ar		1		UNL1		0.6912
6		N		3.1793		1.6708		0.3406		N.pl3		1		UNL1		-0.7665
7		C		3.9188		0.4965		0.1977		C.ar		1		UNL1		0.3819
8		C		5.2834		0.5631		0.5470		C.ar		1		UNL1		-0.2056
9		C		6.1017		-0.5487		0.4399		C.ar		1		UNL1		-0.1405
10		C		5.5782		-1.7693		-0.0225		C.ar		1		UNL1		0.1310
11		C		6.4176		-2.9225		-0.1352		C.1		1		UNL1		0.2272
12		N		7.1022		-3.8598		-0.2258		N.1		1		UNL1		-0.4854
13		C		4.2192		-1.8356		-0.3711		C.ar		1		UNL1		-0.1538
14		C		3.3925		-0.7239		-0.2663		C.ar		1		UNL1		-0.1641
15		N		1.0155		1.0213		-0.3257		N.ar		1		UNL1		-0.5184
16		C		-0.2438		1.3892		-0.5282		C.ar		1		UNL1		0.4597
17		O		-1.0380		0.4051		-1.0549		O.3		1		UNL1		-0.5496
18		C		-2.1824		-0.0102		-0.3899		C.ar		1		UNL1		0.3510
19		C		-2.2615		0.0034		1.0245		C.ar		1		UNL1		-0.1723
20		C		-3.3968		-0.4704		1.6413		C.ar		1		UNL1		-0.2041
21		C		-4.4860		-0.9875		0.8910		C.ar		1		UNL1		0.1427
22		C		-5.6651		-1.4855		1.5070		C.ar		1		UNL1		-0.1910
23		C		-6.6996		-1.9845		0.7485		C.ar		1		UNL1		-0.1361
24		C		-6.5992		-2.0074		-0.6648		C.ar		1		UNL1		-0.1349
25		C		-5.4701		-1.5330		-1.2931		C.ar		1		UNL1		-0.1903
26		C		-4.3837		-1.0108		-0.5392		C.ar		1		UNL1		0.1337
27		C		-3.2109		-0.5066		-1.1571		C.ar		1		UNL1		-0.2529
28		H		-2.4514		2.8085		-1.6045		H		1		UNL1		0.1774
29		H		-2.1914		4.2329		-0.5819		H		1		UNL1		0.1610
30		H		-2.8480		2.7412		0.1110		H		1		UNL1		0.1806
31		H		-0.0044		4.6175		0.3353		H		1		UNL1		0.1517
32		H		3.6876		2.4803		0.6737		H		1		UNL1		0.3479
33		H		5.6993		1.5016		0.9062		H		1		UNL1		0.1367
34		H		7.1498		-0.4807		0.7129		H		1		UNL1		0.1574
35		H		3.8067		-2.7734		-0.7299		H		1		UNL1		0.1593
36		H		2.3487		-0.7866		-0.5380		H		1		UNL1		0.1955
37		H		-1.4249		0.3732		1.6084		H		1		UNL1		0.1511
38		H		-3.4633		-0.4633		2.7264		H		1		UNL1		0.1405
39		H		-5.7357		-1.4668		2.5921		H		1		UNL1		0.1329
40		H		-7.5965		-2.3636		1.2302		H		1		UNL1		0.1335
41		H		-7.4213		-2.4044		-1.2541		H		1		UNL1		0.1345
42		H		-5.3935		-1.5521		-2.3775		H		1		UNL1		0.1339
43		H		-3.1147		-0.5125		-2.2388		H		1		UNL1		0.1445
@<TRIPOS>BOND
1		42		25		1
2		43		27		1
3		28		1		1
4		25		24		ar
5		25		26		ar
6		41		24		1
7		27		26		ar
8		27		18		ar
9		17		16		1
10		17		18		1
11		35		13		1
12		24		23		ar
13		1		29		1
14		1		2		1
15		1		30		1
16		26		21		ar
17		36		14		1
18		16		15		ar
19		16		2		ar
20		18		19		ar
21		13		14		ar
22		13		10		ar
23		15		5		ar
24		2		3		ar
25		14		7		ar
26		12		11		3
27		11		10		1
28		10		9		ar
29		5		6		1
30		5		4		ar
31		3		31		1
32		3		4		ar
33		7		6		1
34		7		8		ar
35		6		32		1
36		9		8		ar
37		9		34		1
38		8		33		1
39		23		40		1
40		23		22		ar
41		21		22		ar
42		21		20		ar
43		19		37		1
44		19		20		ar
45		22		39		1
46		20		38		1

