@<TRIPOS>MOLECULE
WHQ-2014-MCC-5468-3-1o
 52 54 0 0 0
SMALL
MULLIKEN_CHARGES
****
Gaussian 16 #p B3LYP/6-31G* opt
@<TRIPOS>ATOM
1		C		9.5457		0.6594		-1.0482		C.3		1		UNL1		-0.2187
2		O		8.6979		1.0576		0.0193		O.3		1		UNL1		-0.5033
3		C		7.3627		0.8109		-0.0878		C.ar		1		UNL1		0.3798
4		C		6.5783		1.2249		1.0003		C.ar		1		UNL1		-0.1706
5		C		5.2060		1.0211		0.9863		C.ar		1		UNL1		-0.1678
6		C		4.5745		0.4053		-0.1069		C.ar		1		UNL1		0.1372
7		C		3.0861		0.1888		-0.1183		C.3		1		UNL1		-0.4919
8		S		2.7026		-1.4539		0.6644		S.3		1		UNL1		0.1623
9		C		0.9413		-1.5167		0.4709		C.ar		1		UNL1		0.3299
10		N		0.2647		-0.5309		-0.0434		N.ar		1		UNL1		-0.5334
11		C		-1.1041		-0.6788		-0.1609		C.ar		1		UNL1		0.2237
12		C		-1.7302		0.5810		-0.8061		C.3		1		UNL1		-0.3212
13		C		-2.3352		0.2456		-2.1041		C.1		1		UNL1		0.3734
14		N		-2.6471		-0.0573		-3.1806		N.1		1		UNL1		-0.4831
15		C		-2.5023		1.4512		0.2014		C.ar		1		UNL1		0.1571
16		C		-1.7041		1.9666		1.2409		C.ar		1		UNL1		-0.1774
17		C		-2.2197		2.7817		2.2407		C.ar		1		UNL1		-0.1254
18		C		-3.5742		3.1181		2.2249		C.ar		1		UNL1		-0.1233
19		C		-4.3872		2.6301		1.2090		C.ar		1		UNL1		-0.1465
20		C		-3.8578		1.8067		0.2080		C.ar		1		UNL1		0.0095
21		BR		-5.1079		1.2082		-1.1096		Br		1		UNL1		-0.0893
22		C		-1.8116		-1.7854		0.2431		C.ar		1		UNL1		0.0821
23		C		-3.3171		-1.9486		0.1255		C.3		1		UNL1		-0.1596
24		C		-3.9833		-2.1362		1.5045		C.3		1		UNL1		-0.4575
25		C		-3.6925		-3.0862		-0.8466		C.3		1		UNL1		-0.4594
26		C		-1.0519		-2.8968		0.8202		C.ar		1		UNL1		0.5857
27		O		-1.4860		-3.9677		1.2267		O.2		1		UNL1		-0.5161
28		N		0.3409		-2.6623		0.8906		N.ar		1		UNL1		-0.6483
29		C		5.3686		-0.0048		-1.1815		C.ar		1		UNL1		-0.1730
30		C		6.7507		0.1926		-1.1851		C.ar		1		UNL1		-0.1941
31		H		10.5552		0.9479		-0.7506		H		1		UNL1		0.1746
32		H		9.2830		1.1707		-1.9835		H		1		UNL1		0.1554
33		H		9.5104		-0.4262		-1.2070		H		1		UNL1		0.1559
34		H		7.0695		1.7054		1.8404		H		1		UNL1		0.1450
35		H		4.6109		1.3477		1.8359		H		1		UNL1		0.1354
36		H		2.5523		0.9519		0.4511		H		1		UNL1		0.1992
37		H		2.6758		0.1658		-1.1294		H		1		UNL1		0.2060
38		H		-0.8515		1.1767		-1.0802		H		1		UNL1		0.2280
39		H		-0.6486		1.7083		1.2510		H		1		UNL1		0.1561
40		H		-1.5667		3.1554		3.0239		H		1		UNL1		0.1420
41		H		-3.9978		3.7561		2.9950		H		1		UNL1		0.1454
42		H		-5.4421		2.8786		1.1769		H		1		UNL1		0.1597
43		H		-3.7269		-1.0283		-0.2957		H		1		UNL1		0.1453
44		H		-3.6579		-3.0665		1.9759		H		1		UNL1		0.1804
45		H		-5.0722		-2.1692		1.3834		H		1		UNL1		0.1432
46		H		-3.7451		-1.3024		2.1750		H		1		UNL1		0.1386
47		H		-4.7831		-3.1461		-0.9384		H		1		UNL1		0.1424
48		H		-3.3230		-4.0492		-0.4852		H		1		UNL1		0.1750
49		H		-3.2820		-2.8993		-1.8446		H		1		UNL1		0.1579
50		H		0.8805		-3.4321		1.2747		H		1		UNL1		0.3564
51		H		4.9036		-0.4860		-2.0388		H		1		UNL1		0.1388
52		H		7.3321		-0.1334		-2.0397		H		1		UNL1		0.1387
@<TRIPOS>BOND
1		14		13		3
2		13		12		1
3		52		30		1
4		51		29		1
5		32		1		1
6		49		25		1
7		33		1		1
8		30		29		ar
9		30		3		ar
10		29		6		ar
11		37		7		1
12		21		20		1
13		38		12		1
14		1		31		1
15		1		2		1
16		47		25		1
17		25		48		1
18		25		23		1
19		12		11		1
20		12		15		1
21		43		23		1
22		11		10		ar
23		11		22		ar
24		7		6		1
25		7		36		1
26		7		8		1
27		6		5		ar
28		3		2		1
29		3		4		ar
30		10		9		ar
31		23		22		1
32		23		24		1
33		15		20		ar
34		15		16		ar
35		20		19		ar
36		22		26		ar
37		9		8		1
38		9		28		ar
39		26		28		ar
40		26		27		2
41		28		50		1
42		5		4		ar
43		5		35		1
44		4		34		1
45		42		19		1
46		19		18		ar
47		16		39		1
48		16		17		ar
49		45		24		1
50		24		44		1
51		24		46		1
52		18		17		ar
53		18		41		1
54		17		40		1

