@<TRIPOS>MOLECULE
WHQ-2015-BMC-624-3-3b
 41 43 0 0 0
SMALL
MULLIKEN_CHARGES
****
Gaussian 16 #p B3LYP/6-31G* opt
@<TRIPOS>ATOM
1		N		-10.4730		-0.4469		0.0006		N.1		1		UNL1		-0.4822
2		C		-9.3091		-0.4277		0.0004		C.1		1		UNL1		0.2288
3		C		-7.8781		-0.4054		0.0003		C.ar		1		UNL1		0.1325
4		C		-7.1820		0.8143		0.0003		C.ar		1		UNL1		-0.1530
5		C		-5.7929		0.8508		0.0001		C.ar		1		UNL1		-0.1582
6		C		-5.0637		-0.3519		-0.0000		C.ar		1		UNL1		0.3810
7		N		-3.6680		-0.4291		-0.0002		N.pl3		1		UNL1		-0.7658
8		C		-2.6871		0.5361		-0.0002		C.ar		1		UNL1		0.7071
9		N		-3.0083		1.8324		-0.0002		N.ar		1		UNL1		-0.4873
10		C		-1.9694		2.6846		-0.0003		C.ar		1		UNL1		0.0720
11		C		-0.6457		2.2848		-0.0003		C.ar		1		UNL1		-0.2193
12		C		-0.4437		0.8932		-0.0003		C.ar		1		UNL1		0.6052
13		O		0.8304		0.4462		-0.0004		O.3		1		UNL1		-0.5333
14		C		1.0485		-0.9737		-0.0003		C.3		1		UNL1		-0.1087
15		C		2.5435		-1.2921		-0.0003		C.2		1		UNL1		0.5769
16		O		2.8878		-2.4654		-0.0003		O.2		1		UNL1		-0.4996
17		N		3.3722		-0.2062		-0.0001		N.am		1		UNL1		-0.7218
18		C		4.7820		-0.1741		0.0000		C.ar		1		UNL1		0.3590
19		C		5.5773		-1.3300		-0.0000		C.ar		1		UNL1		-0.1541
20		C		6.9664		-1.2130		0.0001		C.ar		1		UNL1		-0.1468
21		C		7.5643		0.0455		0.0002		C.ar		1		UNL1		-0.0628
22		CL		9.3178		0.1806		0.0004		Cl		1		UNL1		-0.0241
23		C		6.7849		1.2012		0.0003		C.ar		1		UNL1		-0.1346
24		C		5.3985		1.0861		0.0002		C.ar		1		UNL1		-0.1900
25		N		-1.4346		0.0190		-0.0003		N.ar		1		UNL1		-0.5828
26		C		-5.7617		-1.5762		-0.0000		C.ar		1		UNL1		-0.2058
27		C		-7.1464		-1.6060		0.0001		C.ar		1		UNL1		-0.1400
28		H		-7.7396		1.7456		0.0004		H		1		UNL1		0.1600
29		H		-5.2638		1.7927		0.0001		H		1		UNL1		0.1907
30		H		-3.2781		-1.3629		-0.0002		H		1		UNL1		0.3477
31		H		-2.2268		3.7418		-0.0003		H		1		UNL1		0.1603
32		H		0.1824		2.9819		-0.0003		H		1		UNL1		0.1518
33		H		0.5928		-1.4302		0.8831		H		1		UNL1		0.1971
34		H		0.5929		-1.4302		-0.8838		H		1		UNL1		0.1971
35		H		2.9025		0.6906		-0.0001		H		1		UNL1		0.3562
36		H		5.1061		-2.3029		-0.0002		H		1		UNL1		0.1958
37		H		7.5828		-2.1058		0.0000		H		1		UNL1		0.1611
38		H		7.2550		2.1787		0.0004		H		1		UNL1		0.1577
39		H		4.7895		1.9875		0.0002		H		1		UNL1		0.1334
40		H		-5.2063		-2.5113		-0.0002		H		1		UNL1		0.1386
41		H		-7.6699		-2.5565		0.0001		H		1		UNL1		0.1603
@<TRIPOS>BOND
1		34		14		1
2		13		14		1
3		13		12		1
4		32		11		1
5		14		15		1
6		14		33		1
7		16		15		2
8		11		12		ar
9		11		10		ar
10		12		25		ar
11		31		10		1
12		10		9		ar
13		25		8		ar
14		15		17		1
15		8		9		ar
16		8		7		1
17		7		30		1
18		7		6		1
19		36		19		1
20		40		26		1
21		17		35		1
22		17		18		1
23		19		18		ar
24		19		20		ar
25		6		26		ar
26		6		5		ar
27		26		27		ar
28		18		24		ar
29		37		20		1
30		20		21		ar
31		5		29		1
32		5		4		ar
33		27		41		1
34		27		3		ar
35		24		39		1
36		24		23		ar
37		21		23		ar
38		21		22		1
39		4		3		ar
40		4		28		1
41		3		2		1
42		23		38		1
43		2		1		3

