@<TRIPOS>MOLECULE
WHQ-2014-SQER-761-2
 43 46 0 0 0
SMALL
MULLIKEN_CHARGES
****
Gaussian 16 #p B3LYP/6-31G* opt
@<TRIPOS>ATOM
1		C		1.7653		4.1892		-0.2825		C.3		1		UNL1		-0.5193
2		C		0.8069		3.0396		-0.1466		C.ar		1		UNL1		0.0844
3		C		-0.5620		3.1461		-0.3398		C.ar		1		UNL1		0.0131
4		N		-1.4352		2.1310		-0.2210		N.ar		1		UNL1		-0.4875
5		C		-0.8999		0.9550		0.1087		C.ar		1		UNL1		0.6974
6		N		-1.6920		-0.1661		0.2584		N.pl3		1		UNL1		-0.7702
7		C		-3.0653		-0.3675		0.1297		C.ar		1		UNL1		0.3832
8		C		-3.9881		0.6416		-0.2048		C.ar		1		UNL1		-0.1603
9		C		-5.3391		0.3350		-0.3066		C.ar		1		UNL1		-0.1537
10		C		-5.8097		-0.9693		-0.0816		C.ar		1		UNL1		0.1304
11		C		-7.2041		-1.2706		-0.1897		C.1		1		UNL1		0.2263
12		N		-8.3386		-1.5174		-0.2772		N.1		1		UNL1		-0.4866
13		C		-4.8860		-1.9759		0.2524		C.ar		1		UNL1		-0.1408
14		C		-3.5379		-1.6770		0.3555		C.ar		1		UNL1		-0.2062
15		N		0.4099		0.7081		0.3288		N.ar		1		UNL1		-0.5582
16		C		1.2264		1.7352		0.1995		C.ar		1		UNL1		0.5256
17		O		2.5594		1.5656		0.3995		O.3		1		UNL1		-0.5678
18		C		3.0496		0.3134		0.7917		C.ar		1		UNL1		0.2874
19		C		3.1027		0.0023		2.1276		C.ar		1		UNL1		-0.1550
20		C		3.6735		-1.2255		2.5374		C.ar		1		UNL1		-0.1515
21		C		4.1775		-2.1044		1.6062		C.ar		1		UNL1		-0.1786
22		C		4.1399		-1.7953		0.2200		C.ar		1		UNL1		0.1196
23		C		4.6585		-2.6790		-0.7645		C.ar		1		UNL1		-0.1955
24		C		4.6148		-2.3543		-2.1012		C.ar		1		UNL1		-0.1303
25		C		4.0508		-1.1240		-2.5181		C.ar		1		UNL1		-0.1359
26		C		3.5377		-0.2418		-1.5941		C.ar		1		UNL1		-0.1851
27		C		3.5642		-0.5538		-0.2094		C.ar		1		UNL1		0.1200
28		H		2.5165		3.9986		-1.0582		H		1		UNL1		0.1714
29		H		2.3134		4.3673		0.6501		H		1		UNL1		0.1730
30		H		1.2303		5.1073		-0.5450		H		1		UNL1		0.1575
31		H		-0.9947		4.1093		-0.6079		H		1		UNL1		0.1474
32		H		-1.1438		-0.9805		0.5040		H		1		UNL1		0.3488
33		H		-3.6326		1.6468		-0.3794		H		1		UNL1		0.1895
34		H		-6.0452		1.1181		-0.5649		H		1		UNL1		0.1568
35		H		-5.2333		-2.9887		0.4292		H		1		UNL1		0.1565
36		H		-2.8330		-2.4638		0.6141		H		1		UNL1		0.1363
37		H		2.7063		0.7026		2.8557		H		1		UNL1		0.1410
38		H		3.7108		-1.4662		3.5959		H		1		UNL1		0.1386
39		H		4.6172		-3.0477		1.9202		H		1		UNL1		0.1337
40		H		5.0943		-3.6209		-0.4401		H		1		UNL1		0.1345
41		H		5.0157		-3.0404		-2.8421		H		1		UNL1		0.1351
42		H		4.0255		-0.8758		-3.5756		H		1		UNL1		0.1352
43		H		3.1136		0.7043		-1.9130		H		1		UNL1		0.1401
@<TRIPOS>BOND
1		42		25		1
2		41		24		1
3		25		24		ar
4		25		26		ar
5		24		23		ar
6		43		26		1
7		26		27		ar
8		28		1		1
9		23		40		1
10		23		22		ar
11		31		3		1
12		34		9		1
13		30		1		1
14		33		8		1
15		3		4		ar
16		3		2		ar
17		9		8		ar
18		9		10		ar
19		1		2		1
20		1		29		1
21		12		11		3
22		4		5		ar
23		27		22		ar
24		27		18		ar
25		8		7		ar
26		11		10		1
27		2		16		ar
28		10		13		ar
29		5		6		1
30		5		15		ar
31		7		6		1
32		7		14		ar
33		16		15		ar
34		16		17		1
35		22		21		ar
36		13		14		ar
37		13		35		1
38		6		32		1
39		14		36		1
40		17		18		1
41		18		19		ar
42		21		39		1
43		21		20		ar
44		19		20		ar
45		19		37		1
46		20		38		1

