@<TRIPOS>MOLECULE
WHQ-2014-SQER-761-59
 51 54 0 0 0
SMALL
MULLIKEN_CHARGES
****
Gaussian 16 #p B3LYP/6-31G* opt
@<TRIPOS>ATOM
1		C		-4.6896		-2.6538		1.2269		C.3		1		UNL1		-0.4371
2		C		-4.1249		-2.2794		-0.1568		C.3		1		UNL1		-0.3558
3		C		-3.3483		-0.9838		-0.1678		C.ar		1		UNL1		0.0412
4		C		-3.9576		0.2979		-0.2377		C.ar		1		UNL1		0.5201
5		N		-5.3149		0.4270		-0.2975		N.pl3		1		UNL1		-0.6456
6		C		-5.9765		1.7009		-0.5217		C.3		1		UNL1		-0.2841
7		N		-3.2496		1.4404		-0.2342		N.ar		1		UNL1		-0.6142
8		C		-1.9188		1.3140		-0.1429		C.ar		1		UNL1		0.7071
9		N		-1.2535		2.5276		-0.1412		N.pl3		1		UNL1		-0.7781
10		C		0.0970		2.8607		-0.0742		C.ar		1		UNL1		0.3815
11		C		0.4124		4.2361		-0.0780		C.ar		1		UNL1		-0.2058
12		C		1.7265		4.6676		-0.0139		C.ar		1		UNL1		-0.1417
13		C		2.7752		3.7330		0.0564		C.ar		1		UNL1		0.1292
14		C		4.1350		4.1714		0.1257		C.1		1		UNL1		0.2251
15		N		5.2414		4.5301		0.1833		N.1		1		UNL1		-0.4899
16		C		2.4621		2.3632		0.0585		C.ar		1		UNL1		-0.1609
17		C		1.1461		1.9238		-0.0055		C.ar		1		UNL1		-0.1651
18		N		-1.2250		0.1773		-0.0605		N.ar		1		UNL1		-0.5731
19		C		-1.9599		-0.9374		-0.0719		C.ar		1		UNL1		0.5147
20		O		-1.3092		-2.1353		-0.0030		O.3		1		UNL1		-0.5812
21		C		0.0694		-2.1743		0.2017		C.ar		1		UNL1		0.3647
22		C		0.6074		-1.8014		1.4569		C.ar		1		UNL1		-0.1444
23		C		1.9572		-1.9373		1.6791		C.ar		1		UNL1		-0.2092
24		C		2.8215		-2.4532		0.6743		C.ar		1		UNL1		0.1426
25		C		4.2190		-2.6024		0.8785		C.ar		1		UNL1		-0.1945
26		C		5.0274		-3.1073		-0.1154		C.ar		1		UNL1		-0.1341
27		C		4.4717		-3.4879		-1.3613		C.ar		1		UNL1		-0.1354
28		C		3.1203		-3.3571		-1.5909		C.ar		1		UNL1		-0.1892
29		C		2.2595		-2.8378		-0.5871		C.ar		1		UNL1		0.1284
30		C		0.8626		-2.6831		-0.7959		C.ar		1		UNL1		-0.2400
31		H		-5.2615		-3.5875		1.1765		H		1		UNL1		0.1459
32		H		-3.8758		-2.7927		1.9462		H		1		UNL1		0.1593
33		H		-5.3488		-1.8706		1.6182		H		1		UNL1		0.1450
34		H		-3.4704		-3.0829		-0.5057		H		1		UNL1		0.1741
35		H		-4.9462		-2.2307		-0.8881		H		1		UNL1		0.1275
36		H		-5.8500		-0.4122		-0.4536		H		1		UNL1		0.3335
37		H		-7.0555		1.5462		-0.4434		H		1		UNL1		0.1505
38		H		-5.6661		2.4257		0.2350		H		1		UNL1		0.1806
39		H		-5.7458		2.1234		-1.5085		H		1		UNL1		0.1627
40		H		-1.9012		3.3023		-0.2034		H		1		UNL1		0.3412
41		H		-0.3897		4.9688		-0.1312		H		1		UNL1		0.1320
42		H		1.9505		5.7295		-0.0173		H		1		UNL1		0.1536
43		H		3.2630		1.6323		0.1109		H		1		UNL1		0.1591
44		H		0.9189		0.8680		-0.0037		H		1		UNL1		0.2039
45		H		-0.0534		-1.4113		2.2235		H		1		UNL1		0.1431
46		H		2.3807		-1.6517		2.6388		H		1		UNL1		0.1393
47		H		4.6417		-2.3091		1.8367		H		1		UNL1		0.1340
48		H		6.0954		-3.2147		0.0525		H		1		UNL1		0.1341
49		H		5.1190		-3.8843		-2.1388		H		1		UNL1		0.1334
50		H		2.6932		-3.6479		-2.5476		H		1		UNL1		0.1323
51		H		0.4168		-2.9685		-1.7441		H		1		UNL1		0.1394
@<TRIPOS>BOND
1		50		28		1
2		49		27		1
3		51		30		1
4		28		27		ar
5		28		29		ar
6		39		6		1
7		27		26		ar
8		35		2		1
9		30		29		ar
10		30		21		ar
11		29		24		ar
12		6		37		1
13		6		5		1
14		6		38		1
15		34		2		1
16		36		5		1
17		5		4		1
18		4		7		ar
19		4		3		ar
20		7		8		ar
21		40		9		1
22		3		2		1
23		3		19		ar
24		2		1		1
25		8		9		1
26		8		18		ar
27		9		10		1
28		41		11		1
29		26		48		1
30		26		25		ar
31		11		10		ar
32		11		12		ar
33		10		17		ar
34		19		18		ar
35		19		20		1
36		42		12		1
37		12		13		ar
38		17		44		1
39		17		16		ar
40		20		21		1
41		13		16		ar
42		13		14		1
43		16		43		1
44		14		15		3
45		21		22		ar
46		24		25		ar
47		24		23		ar
48		25		47		1
49		31		1		1
50		1		33		1
51		1		32		1
52		22		23		ar
53		22		45		1
54		23		46		1

