@<TRIPOS>MOLECULE
WHQ-2015-BMC-624-3-3d
 43 45 0 0 0
SMALL
MULLIKEN_CHARGES
****
Gaussian 16 #p B3LYP/6-31G* opt
@<TRIPOS>ATOM
1		N		10.3206		-2.2111		0.2445		N.1		1		UNL1		-0.4826
2		C		9.2111		-1.8612		0.2034		C.1		1		UNL1		0.2284
3		C		7.8463		-1.4338		0.1526		C.ar		1		UNL1		0.1321
4		C		7.5269		-0.0739		0.0064		C.ar		1		UNL1		-0.1531
5		C		6.2061		0.3546		-0.0450		C.ar		1		UNL1		-0.1584
6		C		5.1635		-0.5850		0.0504		C.ar		1		UNL1		0.3820
7		N		3.8047		-0.2630		0.0087		N.pl3		1		UNL1		-0.7657
8		C		3.1395		0.9371		-0.1191		C.ar		1		UNL1		0.7053
9		N		3.8184		2.0796		-0.2316		N.ar		1		UNL1		-0.4893
10		C		3.0669		3.1897		-0.3464		C.ar		1		UNL1		0.0703
11		C		1.6856		3.1856		-0.3521		C.ar		1		UNL1		-0.2156
12		C		1.0915		1.9162		-0.2296		C.ar		1		UNL1		0.5977
13		O		-0.2539		1.8650		-0.2339		O.3		1		UNL1		-0.4808
14		C		-0.8653		0.5912		-0.0855		C.3		1		UNL1		-0.1219
15		C		-2.3546		0.8366		0.1811		C.2		1		UNL1		0.6122
16		O		-2.7526		1.7901		0.8212		O.2		1		UNL1		-0.4681
17		N		-3.1585		-0.1650		-0.3301		N.am		1		UNL1		-0.7291
18		C		-4.5450		-0.3396		-0.1835		C.ar		1		UNL1		0.3832
19		C		-5.1172		-1.4734		-0.7901		C.ar		1		UNL1		-0.2087
20		C		-6.4780		-1.7187		-0.6902		C.ar		1		UNL1		-0.1526
21		C		-7.2722		-0.8220		0.0237		C.ar		1		UNL1		0.2830
22		N		-8.7113		-1.0749		0.1345		N.pl3		1		UNL1		0.3756
23		O		-9.1588		-2.0826		-0.4156		O.2		1		UNL1		-0.3994
24		O		-9.3882		-0.2665		0.7705		O.2		1		UNL1		-0.3966
25		C		-6.7256		0.3068		0.6310		C.ar		1		UNL1		-0.1665
26		C		-5.3614		0.5558		0.5306		C.ar		1		UNL1		-0.1708
27		N		1.7913		0.7983		-0.1168		N.ar		1		UNL1		-0.5926
28		C		5.4839		-1.9498		0.1975		C.ar		1		UNL1		-0.2060
29		C		6.8023		-2.3707		0.2482		C.ar		1		UNL1		-0.1400
30		H		8.3270		0.6558		-0.0677		H		1		UNL1		0.1602
31		H		5.9672		1.4021		-0.1571		H		1		UNL1		0.1918
32		H		3.1649		-1.0425		0.0882		H		1		UNL1		0.3422
33		H		3.6175		4.1238		-0.4364		H		1		UNL1		0.1601
34		H		1.0866		4.0827		-0.4390		H		1		UNL1		0.1651
35		H		-0.4318		0.0544		0.7667		H		1		UNL1		0.1977
36		H		-0.6919		-0.0191		-0.9810		H		1		UNL1		0.1569
37		H		-2.6963		-0.8742		-0.8844		H		1		UNL1		0.3384
38		H		-4.4881		-2.1671		-1.3432		H		1		UNL1		0.1408
39		H		-6.9318		-2.5869		-1.1516		H		1		UNL1		0.1872
40		H		-7.3734		0.9824		1.1761		H		1		UNL1		0.1901
41		H		-4.9227		1.4288		0.9915		H		1		UNL1		0.2046
42		H		4.6847		-2.6838		0.2728		H		1		UNL1		0.1341
43		H		7.0328		-3.4250		0.3619		H		1		UNL1		0.1590
@<TRIPOS>BOND
1		38		19		1
2		39		20		1
3		36		14		1
4		37		17		1
5		19		20		ar
6		19		18		ar
7		20		21		ar
8		34		11		1
9		33		10		1
10		23		22		2
11		11		10		ar
12		11		12		ar
13		10		9		ar
14		17		18		1
15		17		15		1
16		13		12		1
17		13		14		1
18		9		8		ar
19		12		27		ar
20		18		26		ar
21		31		5		1
22		8		27		ar
23		8		7		1
24		14		15		1
25		14		35		1
26		30		4		1
27		5		4		ar
28		5		6		ar
29		4		3		ar
30		7		6		1
31		7		32		1
32		21		22		1
33		21		25		ar
34		6		28		ar
35		22		24		2
36		3		2		1
37		3		29		ar
38		15		16		2
39		28		29		ar
40		28		42		1
41		2		1		3
42		29		43		1
43		26		25		ar
44		26		41		1
45		25		40		1

