@<TRIPOS>MOLECULE
WHQ-2014-SQER-761-23
 40 43 0 0 0
SMALL
MULLIKEN_CHARGES
****
Gaussian 16 #p B3LYP/6-31G* opt
@<TRIPOS>ATOM
1		N		-9.8565		-0.2932		0.7874		N.1		1		UNL1		-0.4858
2		C		-8.7263		-0.1966		0.5250		C.1		1		UNL1		0.2269
3		C		-7.3378		-0.0777		0.2010		C.ar		1		UNL1		0.1309
4		C		-6.9131		-0.1040		-1.1394		C.ar		1		UNL1		-0.1406
5		C		-5.5675		0.0119		-1.4452		C.ar		1		UNL1		-0.2057
6		C		-4.6019		0.1576		-0.4279		C.ar		1		UNL1		0.3827
7		N		-3.2732		0.2672		-0.8385		N.pl3		1		UNL1		-0.7670
8		C		-2.0928		0.4158		-0.1412		C.ar		1		UNL1		0.6999
9		N		-2.1000		0.4815		1.1965		N.ar		1		UNL1		-0.4845
10		C		-0.8943		0.6240		1.7630		C.ar		1		UNL1		0.0673
11		C		0.2934		0.7012		1.0519		C.ar		1		UNL1		-0.2115
12		C		0.1562		0.6209		-0.3434		C.ar		1		UNL1		0.5476
13		O		1.2029		0.6915		-1.2139		O.3		1		UNL1		-0.5263
14		C		2.4954		0.8386		-0.7374		C.ar		1		UNL1		0.2871
15		C		3.0589		2.1345		-0.7702		C.ar		1		UNL1		-0.1535
16		C		4.3652		2.3245		-0.3935		C.ar		1		UNL1		-0.2013
17		C		5.1675		1.2334		0.0327		C.ar		1		UNL1		0.1531
18		C		6.5200		1.4174		0.4255		C.ar		1		UNL1		-0.1959
19		C		7.2905		0.3541		0.8348		C.ar		1		UNL1		-0.1292
20		C		6.7362		-0.9470		0.8684		C.ar		1		UNL1		-0.1324
21		C		5.4291		-1.1647		0.4947		C.ar		1		UNL1		-0.1866
22		C		4.6066		-0.0889		0.0667		C.ar		1		UNL1		0.0901
23		C		3.2469		-0.2469		-0.3354		C.ar		1		UNL1		-0.0140
24		BR		2.4244		-1.9653		-0.3273		Br		1		UNL1		-0.0917
25		N		-1.0122		0.4819		-0.9436		N.ar		1		UNL1		-0.5441
26		C		-5.0247		0.1839		0.9142		C.ar		1		UNL1		-0.1594
27		C		-6.3760		0.0672		1.2144		C.ar		1		UNL1		-0.1535
28		H		-7.6435		-0.2156		-1.9341		H		1		UNL1		0.1574
29		H		-5.2509		-0.0099		-2.4854		H		1		UNL1		0.1377
30		H		-3.1120		0.2299		-1.8371		H		1		UNL1		0.3498
31		H		-0.8856		0.6779		2.8500		H		1		UNL1		0.1569
32		H		1.2512		0.8116		1.5414		H		1		UNL1		0.1626
33		H		2.4352		2.9557		-1.1079		H		1		UNL1		0.1572
34		H		4.8023		3.3189		-0.4197		H		1		UNL1		0.1470
35		H		6.9352		2.4217		0.3953		H		1		UNL1		0.1396
36		H		8.3235		0.5097		1.1325		H		1		UNL1		0.1405
37		H		7.3483		-1.7840		1.1924		H		1		UNL1		0.1418
38		H		5.0097		-2.1638		0.5229		H		1		UNL1		0.1599
39		H		-4.2903		0.2948		1.6988		H		1		UNL1		0.1894
40		H		-6.6952		0.0881		2.2517		H		1		UNL1		0.1573
@<TRIPOS>BOND
1		29		5		1
2		28		4		1
3		30		7		1
4		5		4		ar
5		5		6		ar
6		13		14		1
7		13		12		1
8		4		3		ar
9		33		15		1
10		25		12		ar
11		25		8		ar
12		7		6		1
13		7		8		1
14		15		14		ar
15		15		16		ar
16		14		23		ar
17		6		26		ar
18		34		16		1
19		16		17		ar
20		12		11		ar
21		23		24		1
22		23		22		ar
23		8		9		ar
24		17		22		ar
25		17		18		ar
26		22		21		ar
27		3		2		1
28		3		27		ar
29		35		18		1
30		18		19		ar
31		21		38		1
32		21		20		ar
33		2		1		3
34		19		20		ar
35		19		36		1
36		20		37		1
37		26		27		ar
38		26		39		1
39		11		32		1
40		11		10		ar
41		9		10		ar
42		27		40		1
43		10		31		1

