@<TRIPOS>MOLECULE
WHQ-2014-MCC-5468-3-1e
 46 48 0 0 0
SMALL
MULLIKEN_CHARGES
****
Gaussian 16 #p B3LYP/6-31G* opt
@<TRIPOS>ATOM
1		C		8.0238		-1.6433		0.9723		C.3		1		UNL1		-0.2175
2		O		6.7086		-1.4485		1.4696		O.3		1		UNL1		-0.5028
3		C		5.7124		-1.1840		0.5786		C.ar		1		UNL1		0.3786
4		C		5.8840		-1.0946		-0.8075		C.ar		1		UNL1		-0.1923
5		C		4.7817		-0.8188		-1.6204		C.ar		1		UNL1		-0.1891
6		C		3.5057		-0.6307		-1.0845		C.ar		1		UNL1		0.1870
7		C		2.3313		-0.3404		-1.9753		C.3		1		UNL1		-0.5356
8		S		1.9099		1.4696		-2.1341		S.3		1		UNL1		0.1578
9		C		0.5957		1.6464		-0.9541		C.ar		1		UNL1		0.3454
10		N		0.0384		0.6348		-0.3520		N.ar		1		UNL1		-0.5413
11		C		-0.9953		0.8967		0.5242		C.ar		1		UNL1		0.2427
12		C		-1.5553		-0.3907		1.1523		C.3		1		UNL1		-0.2981
13		C		-1.5480		-0.3215		2.6203		C.1		1		UNL1		0.3693
14		N		-1.5324		-0.2773		3.7801		N.1		1		UNL1		-0.4896
15		C		-2.9172		-0.8053		0.5741		C.ar		1		UNL1		0.1521
16		C		-3.0329		-0.9520		-0.8148		C.ar		1		UNL1		-0.1626
17		C		-4.2344		-1.3518		-1.3934		C.ar		1		UNL1		-0.1336
18		C		-5.3330		-1.6096		-0.5723		C.ar		1		UNL1		-0.0609
19		CL		-6.8527		-2.1146		-1.2955		Cl		1		UNL1		-0.0156
20		C		-5.2397		-1.4747		0.8099		C.ar		1		UNL1		-0.1358
21		C		-4.0284		-1.0733		1.3776		C.ar		1		UNL1		-0.1841
22		C		-1.4904		2.1469		0.7932		C.ar		1		UNL1		0.0698
23		C		-2.6192		2.4623		1.7356		C.3		1		UNL1		-0.5437
24		C		-0.8632		3.2890		0.1309		C.ar		1		UNL1		0.5815
25		O		-1.1602		4.4676		0.2615		O.2		1		UNL1		-0.5103
26		N		0.1925		2.9277		-0.7385		N.ar		1		UNL1		-0.6512
27		C		3.3518		-0.7255		0.3096		C.ar		1		UNL1		-0.1820
28		C		4.4349		-0.9979		1.1315		C.ar		1		UNL1		-0.1699
29		H		8.0748		-2.5053		0.2941		H		1		UNL1		0.1537
30		H		8.6482		-1.8350		1.8466		H		1		UNL1		0.1743
31		H		8.3938		-0.7509		0.4508		H		1		UNL1		0.1545
32		H		6.8576		-1.2382		-1.2617		H		1		UNL1		0.1356
33		H		4.9283		-0.7535		-2.6965		H		1		UNL1		0.1275
34		H		2.5187		-0.6563		-3.0046		H		1		UNL1		0.1918
35		H		1.4111		-0.8109		-1.6233		H		1		UNL1		0.2231
36		H		-0.8313		-1.1696		0.8823		H		1		UNL1		0.2214
37		H		-2.1753		-0.7529		-1.4514		H		1		UNL1		0.1549
38		H		-4.3198		-1.4643		-2.4689		H		1		UNL1		0.1609
39		H		-6.0999		-1.6800		1.4381		H		1		UNL1		0.1642
40		H		-3.9567		-0.9753		2.4567		H		1		UNL1		0.1688
41		H		-2.2661		2.5304		2.7721		H		1		UNL1		0.1907
42		H		-3.0478		3.4312		1.4694		H		1		UNL1		0.1919
43		H		-3.4054		1.7036		1.7028		H		1		UNL1		0.1647
44		H		0.6565		3.7066		-1.1959		H		1		UNL1		0.3597
45		H		2.3682		-0.5820		0.7481		H		1		UNL1		0.1467
46		H		4.3202		-1.0755		2.2081		H		1		UNL1		0.1474
@<TRIPOS>BOND
1		34		7		1
2		33		5		1
3		38		17		1
4		8		7		1
5		8		9		1
6		7		35		1
7		7		6		1
8		5		6		ar
9		5		4		ar
10		37		16		1
11		17		16		ar
12		17		18		ar
13		19		18		1
14		32		4		1
15		44		26		1
16		6		27		ar
17		9		26		ar
18		9		10		ar
19		16		15		ar
20		4		3		ar
21		26		24		ar
22		18		20		ar
23		10		11		ar
24		24		25		2
25		24		22		ar
26		29		1		1
27		27		45		1
28		27		28		ar
29		31		1		1
30		11		22		ar
31		11		12		1
32		15		12		1
33		15		21		ar
34		3		28		ar
35		3		2		1
36		22		23		1
37		20		21		ar
38		20		39		1
39		36		12		1
40		1		2		1
41		1		30		1
42		28		46		1
43		12		13		1
44		21		40		1
45		42		23		1
46		43		23		1
47		23		41		1
48		13		14		3

