@<TRIPOS>MOLECULE
WHQ-2014-SQER-761-68
 45 48 0 0 0
SMALL
MULLIKEN_CHARGES
****
Gaussian 16 #p B3LYP/6-31G* opt
@<TRIPOS>ATOM
1		C		0.9552		-1.5134		1.8781		C.3		1		UNL1		-0.2289
2		O		1.7445		-0.3467		1.5846		O.3		1		UNL1		-0.5295
3		C		2.3551		-0.3306		0.3598		C.ar		1		UNL1		0.2684
4		C		1.6356		-0.1788		-0.8144		C.ar		1		UNL1		0.2904
5		O		0.2475		-0.1514		-0.7827		O.3		1		UNL1		-0.5438
6		C		-0.4005		0.9834		-0.3889		C.ar		1		UNL1		0.5558
7		C		0.2288		2.2134		-0.1803		C.ar		1		UNL1		-0.2072
8		C		-0.6206		3.2517		0.1954		C.ar		1		UNL1		0.0658
9		N		-1.9376		3.1160		0.3486		N.ar		1		UNL1		-0.4919
10		C		-2.4183		1.8778		0.1133		C.ar		1		UNL1		0.6949
11		N		-3.7817		1.7776		0.2817		N.pl3		1		UNL1		-0.7646
12		C		-4.6751		0.7150		0.1388		C.ar		1		UNL1		0.3818
13		C		-6.0293		0.9866		0.4222		C.ar		1		UNL1		-0.2050
14		C		-6.9934		-0.0008		0.3081		C.ar		1		UNL1		-0.1404
15		C		-6.6312		-1.2984		-0.0953		C.ar		1		UNL1		0.1316
16		C		-7.6210		-2.3248		-0.2146		C.1		1		UNL1		0.2276
17		N		-8.4267		-3.1595		-0.3108		N.1		1		UNL1		-0.4840
18		C		-5.2825		-1.5689		-0.3785		C.ar		1		UNL1		-0.1537
19		C		-4.3102		-0.5827		-0.2661		C.ar		1		UNL1		-0.1631
20		N		-1.7082		0.8022		-0.2470		N.ar		1		UNL1		-0.5404
21		C		2.2753		-0.1355		-2.0724		C.ar		1		UNL1		-0.1744
22		C		3.6450		-0.2206		-2.1525		C.ar		1		UNL1		-0.1964
23		C		4.4285		-0.3477		-0.9738		C.ar		1		UNL1		0.1416
24		C		5.8419		-0.4256		-1.0225		C.ar		1		UNL1		-0.2228
25		C		6.5845		-0.5529		0.1398		C.ar		1		UNL1		0.1385
26		C		8.0148		-0.6291		0.0737		C.1		1		UNL1		0.2368
27		N		9.1756		-0.6914		0.0276		N.1		1		UNL1		-0.4747
28		C		5.9325		-0.6064		1.4061		C.ar		1		UNL1		-0.1445
29		C		4.5635		-0.5337		1.4797		C.ar		1		UNL1		-0.1833
30		C		3.7779		-0.4059		0.3025		C.ar		1		UNL1		0.0897
31		H		0.5886		-1.3732		2.8965		H		1		UNL1		0.1732
32		H		1.5744		-2.4171		1.8308		H		1		UNL1		0.1547
33		H		0.1105		-1.6056		1.1898		H		1		UNL1		0.1810
34		H		1.2946		2.3547		-0.2955		H		1		UNL1		0.1620
35		H		-0.2185		4.2459		0.3815		H		1		UNL1		0.1600
36		H		-4.1833		2.6634		0.5626		H		1		UNL1		0.3496
37		H		-6.3212		1.9863		0.7355		H		1		UNL1		0.1386
38		H		-8.0314		0.2246		0.5303		H		1		UNL1		0.1590
39		H		-4.9946		-2.5674		-0.6922		H		1		UNL1		0.1582
40		H		-3.2756		-0.8013		-0.4868		H		1		UNL1		0.1913
41		H		1.6577		-0.0362		-2.9594		H		1		UNL1		0.1597
42		H		4.1416		-0.1866		-3.1178		H		1		UNL1		0.1502
43		H		6.3439		-0.3832		-1.9844		H		1		UNL1		0.1635
44		H		6.5317		-0.7029		2.3054		H		1		UNL1		0.1619
45		H		4.0588		-0.5635		2.4385		H		1		UNL1		0.1630
@<TRIPOS>BOND
1		42		22		1
2		41		21		1
3		22		21		ar
4		22		23		ar
5		21		4		ar
6		43		24		1
7		24		23		ar
8		24		25		ar
9		23		30		ar
10		4		5		1
11		4		3		ar
12		5		6		1
13		39		18		1
14		40		19		1
15		6		20		ar
16		6		7		ar
17		18		19		ar
18		18		15		ar
19		17		16		3
20		34		7		1
21		19		12		ar
22		20		10		ar
23		16		15		1
24		7		8		ar
25		15		14		ar
26		27		26		3
27		26		25		1
28		10		11		1
29		10		9		ar
30		12		11		1
31		12		13		ar
32		25		28		ar
33		8		9		ar
34		8		35		1
35		11		36		1
36		30		3		ar
37		30		29		ar
38		14		13		ar
39		14		38		1
40		3		2		1
41		13		37		1
42		33		1		1
43		28		29		ar
44		28		44		1
45		29		45		1
46		2		1		1
47		32		1		1
48		1		31		1

