@<TRIPOS>MOLECULE
WHQ-2014-SQER-761-47
 46 49 0 0 0
SMALL
MULLIKEN_CHARGES
****
Gaussian 16 #p B3LYP/6-31G* opt
@<TRIPOS>ATOM
1		C		-1.3857		-0.0788		2.3040		C.3		1		UNL1		-0.5462
2		C		-2.4567		-0.3307		1.2716		C.ar		1		UNL1		0.1798
3		C		-3.7548		-0.6310		1.6345		C.ar		1		UNL1		-0.2889
4		C		-4.7705		-0.9200		0.6853		C.ar		1		UNL1		0.1618
5		C		-6.1029		-1.2298		1.0683		C.ar		1		UNL1		-0.1944
6		C		-7.0588		-1.5183		0.1205		C.ar		1		UNL1		-0.1355
7		C		-6.7247		-1.5123		-1.2565		C.ar		1		UNL1		-0.1364
8		C		-5.4420		-1.2176		-1.6606		C.ar		1		UNL1		-0.1902
9		C		-4.4344		-0.9134		-0.7064		C.ar		1		UNL1		0.1313
10		C		-3.1035		-0.5964		-1.0790		C.ar		1		UNL1		-0.2497
11		C		-2.1631		-0.2966		-0.1237		C.ar		1		UNL1		0.2754
12		O		-0.8532		-0.0942		-0.5548		O.3		1		UNL1		-0.5444
13		C		-0.1573		1.0600		-0.3464		C.ar		1		UNL1		0.4807
14		N		1.1500		0.8322		-0.2468		N.ar		1		UNL1		-0.5309
15		C		1.9458		1.8912		-0.0875		C.ar		1		UNL1		0.6908
16		N		3.3117		1.7237		0.0120		N.pl3		1		UNL1		-0.7661
17		C		4.1266		0.5931		-0.0293		C.ar		1		UNL1		0.3825
18		C		5.5122		0.8056		0.1256		C.ar		1		UNL1		-0.2057
19		C		6.4036		-0.2536		0.0983		C.ar		1		UNL1		-0.1407
20		C		5.9352		-1.5668		-0.0856		C.ar		1		UNL1		0.1306
21		C		6.8500		-2.6664		-0.1138		C.1		1		UNL1		0.2266
22		N		7.5959		-3.5601		-0.1361		N.1		1		UNL1		-0.4863
23		C		4.5552		-1.7787		-0.2407		C.ar		1		UNL1		-0.1542
24		C		3.6553		-0.7207		-0.2147		C.ar		1		UNL1		-0.1647
25		N		1.5484		3.1743		0.0007		N.ar		1		UNL1		-0.4890
26		C		0.2358		3.3616		-0.1155		C.ar		1		UNL1		0.0105
27		C		-0.7175		2.3533		-0.3054		C.ar		1		UNL1		0.1081
28		C		-2.1708		2.7125		-0.4934		C.3		1		UNL1		-0.5392
29		H		-1.0853		0.9759		2.3388		H		1		UNL1		0.1675
30		H		-1.7432		-0.3545		3.3002		H		1		UNL1		0.1627
31		H		-0.4824		-0.6599		2.0883		H		1		UNL1		0.1850
32		H		-4.0109		-0.6665		2.6914		H		1		UNL1		0.1324
33		H		-6.3555		-1.2362		2.1261		H		1		UNL1		0.1332
34		H		-8.0747		-1.7538		0.4254		H		1		UNL1		0.1340
35		H		-7.4877		-1.7433		-1.9947		H		1		UNL1		0.1346
36		H		-5.1831		-1.2136		-2.7167		H		1		UNL1		0.1342
37		H		-2.8149		-0.5880		-2.1261		H		1		UNL1		0.1445
38		H		3.7834		2.6102		0.1394		H		1		UNL1		0.3472
39		H		5.8862		1.8168		0.2689		H		1		UNL1		0.1362
40		H		7.4668		-0.0726		0.2193		H		1		UNL1		0.1568
41		H		4.1848		-2.7889		-0.3845		H		1		UNL1		0.1581
42		H		2.5959		-0.8947		-0.3357		H		1		UNL1		0.1948
43		H		-0.0996		4.3975		-0.0667		H		1		UNL1		0.1493
44		H		-2.5773		2.3006		-1.4225		H		1		UNL1		0.1753
45		H		-2.2720		3.8020		-0.5402		H		1		UNL1		0.1596
46		H		-2.8081		2.3539		0.3216		H		1		UNL1		0.1790
@<TRIPOS>BOND
1		36		8		1
2		37		10		1
3		35		7		1
4		8		7		ar
5		8		9		ar
6		44		28		1
7		7		6		ar
8		10		9		ar
9		10		11		ar
10		9		4		ar
11		12		13		1
12		12		11		1
13		45		28		1
14		28		27		1
15		28		46		1
16		41		23		1
17		13		27		ar
18		13		14		ar
19		42		24		1
20		27		26		ar
21		14		15		ar
22		23		24		ar
23		23		20		ar
24		24		17		ar
25		22		21		3
26		11		2		ar
27		26		43		1
28		26		25		ar
29		21		20		1
30		15		25		ar
31		15		16		1
32		20		19		ar
33		17		16		1
34		17		18		ar
35		16		38		1
36		19		18		ar
37		19		40		1
38		6		34		1
39		6		5		ar
40		18		39		1
41		4		5		ar
42		4		3		ar
43		5		33		1
44		2		3		ar
45		2		1		1
46		3		32		1
47		31		1		1
48		1		29		1
49		1		30		1

