@<TRIPOS>MOLECULE
WHQ-2014-SQER-761-72
 45 48 0 0 0
SMALL
MULLIKEN_CHARGES
****
Gaussian 16 #p B3LYP/6-31G* opt
@<TRIPOS>ATOM
1		C		-1.7304		3.6202		-0.8540		C.3		1		UNL1		-0.2243
2		O		-1.4074		2.2333		-0.8768		O.3		1		UNL1		-0.5050
3		C		-2.3918		1.3441		-0.6122		C.ar		1		UNL1		0.3917
4		C		-3.6986		1.6479		-0.3028		C.ar		1		UNL1		-0.2860
5		C		-4.6413		0.6142		-0.0519		C.ar		1		UNL1		0.1558
6		C		-5.9865		0.9225		0.2634		C.ar		1		UNL1		-0.2243
7		C		-6.9089		-0.0821		0.5076		C.ar		1		UNL1		0.1408
8		C		-8.2662		0.2529		0.8264		C.1		1		UNL1		0.2367
9		N		-9.3682		0.5201		1.0862		N.1		1		UNL1		-0.4736
10		C		-6.5124		-1.4459		0.4434		C.ar		1		UNL1		-0.1445
11		C		-5.2119		-1.7698		0.1388		C.ar		1		UNL1		-0.2016
12		C		-4.2460		-0.7621		-0.1155		C.ar		1		UNL1		0.1420
13		C		-2.8815		-1.0406		-0.4315		C.ar		1		UNL1		-0.2178
14		CL		-2.3204		-2.6924		-0.5291		Cl		1		UNL1		0.0392
15		C		-1.9795		-0.0270		-0.6703		C.ar		1		UNL1		0.2914
16		O		-0.7009		-0.3160		-1.0836		O.3		1		UNL1		-0.5190
17		C		0.3569		-0.1179		-0.2414		C.ar		1		UNL1		0.5662
18		C		0.2180		0.1611		1.1269		C.ar		1		UNL1		-0.2103
19		C		1.4110		0.2998		1.8199		C.ar		1		UNL1		0.0665
20		N		2.6212		0.1810		1.2582		N.ar		1		UNL1		-0.4834
21		C		2.6145		-0.0940		-0.0529		C.ar		1		UNL1		0.7008
22		N		3.7990		-0.2454		-0.7401		N.pl3		1		UNL1		-0.7668
23		C		5.1350		-0.1690		-0.3429		C.ar		1		UNL1		0.3821
24		C		6.1041		-0.3855		-1.3438		C.ar		1		UNL1		-0.2056
25		C		7.4563		-0.3292		-1.0503		C.ar		1		UNL1		-0.1405
26		C		7.8836		-0.0531		0.2606		C.ar		1		UNL1		0.1315
27		C		9.2789		0.0080		0.5717		C.1		1		UNL1		0.2275
28		N		10.4144		0.0581		0.8236		N.1		1		UNL1		-0.4844
29		C		6.9181		0.1618		1.2578		C.ar		1		UNL1		-0.1534
30		C		5.5601		0.1067		0.9698		C.ar		1		UNL1		-0.1594
31		N		1.5272		-0.2492		-0.8352		N.ar		1		UNL1		-0.5462
32		H		-0.8052		4.1420		-1.1001		H		1		UNL1		0.1876
33		H		-2.4977		3.8588		-1.6005		H		1		UNL1		0.1656
34		H		-2.0753		3.9307		0.1401		H		1		UNL1		0.1620
35		H		-4.0333		2.6774		-0.2529		H		1		UNL1		0.1526
36		H		-6.2941		1.9625		0.3127		H		1		UNL1		0.1608
37		H		-7.2444		-2.2227		0.6363		H		1		UNL1		0.1638
38		H		-4.9129		-2.8103		0.0902		H		1		UNL1		0.1711
39		H		-0.7443		0.2519		1.6128		H		1		UNL1		0.1572
40		H		1.4033		0.5158		2.8866		H		1		UNL1		0.1579
41		H		3.6376		-0.4526		-1.7178		H		1		UNL1		0.3507
42		H		5.7854		-0.6000		-2.3613		H		1		UNL1		0.1385
43		H		8.1897		-0.4983		-1.8320		H		1		UNL1		0.1585
44		H		7.2395		0.3748		2.2725		H		1		UNL1		0.1581
45		H		4.8231		0.2727		1.7421		H		1		UNL1		0.1892
@<TRIPOS>BOND
1		42		24		1
2		43		25		1
3		41		22		1
4		33		1		1
5		24		25		ar
6		24		23		ar
7		32		1		1
8		16		15		1
9		16		17		1
10		25		26		ar
11		2		1		1
12		2		3		1
13		1		34		1
14		31		17		ar
15		31		21		ar
16		22		23		1
17		22		21		1
18		15		3		ar
19		15		13		ar
20		3		4		ar
21		14		13		1
22		13		12		ar
23		23		30		ar
24		4		35		1
25		4		5		ar
26		17		18		ar
27		12		5		ar
28		12		11		ar
29		21		20		ar
30		5		6		ar
31		38		11		1
32		11		10		ar
33		26		27		1
34		26		29		ar
35		6		36		1
36		6		7		ar
37		10		7		ar
38		10		37		1
39		7		8		1
40		27		28		3
41		8		9		3
42		30		29		ar
43		30		45		1
44		18		39		1
45		18		19		ar
46		29		44		1
47		20		19		ar
48		19		40		1

