@<TRIPOS>MOLECULE
WHQ-2014-SQER-761-61
 51 54 0 0 0
SMALL
MULLIKEN_CHARGES
****
Gaussian 16 #p B3LYP/6-31G* opt
@<TRIPOS>ATOM
1		C		1.0342		4.7292		0.7666		C.3		1		UNL1		-0.4422
2		C		0.7022		4.0704		-0.5865		C.3		1		UNL1		-0.3551
3		C		-0.0479		2.7654		-0.4626		C.ar		1		UNL1		0.0408
4		C		-1.4548		2.6773		-0.3183		C.ar		1		UNL1		0.5255
5		N		-2.2296		3.7979		-0.3032		N.pl3		1		UNL1		-0.6488
6		C		-3.6674		3.7756		-0.1017		C.3		1		UNL1		-0.2893
7		N		-2.1089		1.5005		-0.2079		N.ar		1		UNL1		-0.6004
8		C		-1.3532		0.4049		-0.2287		C.ar		1		UNL1		0.7102
9		N		-1.9331		-0.8480		-0.1244		N.pl3		1		UNL1		-0.7813
10		C		-3.2516		-1.2701		0.0103		C.ar		1		UNL1		0.3849
11		C		-4.3616		-0.4059		0.0701		C.ar		1		UNL1		-0.1621
12		C		-5.6409		-0.9295		0.2037		C.ar		1		UNL1		-0.1570
13		C		-5.8569		-2.3156		0.2817		C.ar		1		UNL1		0.1299
14		C		-7.1803		-2.8406		0.4181		C.1		1		UNL1		0.2249
15		N		-8.2579		-3.2680		0.5288		N.1		1		UNL1		-0.4881
16		C		-4.7474		-3.1782		0.2230		C.ar		1		UNL1		-0.1413
17		C		-3.4697		-2.6621		0.0897		C.ar		1		UNL1		-0.2052
18		N		-0.0148		0.3493		-0.3376		N.ar		1		UNL1		-0.5869
19		C		0.5911		1.5262		-0.4459		C.ar		1		UNL1		0.5215
20		O		1.9565		1.5441		-0.5433		O.3		1		UNL1		-0.5716
21		C		2.6602		0.3571		-0.6400		C.ar		1		UNL1		0.3713
22		C		2.5994		-0.3992		-1.8335		C.ar		1		UNL1		-0.1332
23		C		3.3772		-1.5194		-1.9779		C.ar		1		UNL1		-0.2084
24		C		4.2564		-1.9370		-0.9431		C.ar		1		UNL1		0.1529
25		C		5.0696		-3.0926		-1.0807		C.ar		1		UNL1		-0.1965
26		C		5.9198		-3.4868		-0.0731		C.ar		1		UNL1		-0.1310
27		C		5.9921		-2.7346		1.1223		C.ar		1		UNL1		-0.1336
28		C		5.2194		-1.6070		1.2918		C.ar		1		UNL1		-0.1948
29		C		4.3319		-1.1747		0.2709		C.ar		1		UNL1		0.1255
30		C		3.5024		-0.0183		0.3856		C.ar		1		UNL1		-0.2035
31		CL		3.5454		0.9534		1.8450		Cl		1		UNL1		0.0069
32		H		0.1300		4.9323		1.3532		H		1		UNL1		0.1366
33		H		1.6743		4.0714		1.3629		H		1		UNL1		0.1736
34		H		1.5622		5.6785		0.6194		H		1		UNL1		0.1470
35		H		0.1267		4.7697		-1.2104		H		1		UNL1		0.1313
36		H		1.6346		3.8889		-1.1289		H		1		UNL1		0.1723
37		H		-1.7594		4.6867		-0.2558		H		1		UNL1		0.3381
38		H		-3.9394		3.3550		0.8743		H		1		UNL1		0.1712
39		H		-4.1590		3.1813		-0.8780		H		1		UNL1		0.1795
40		H		-4.0372		4.8022		-0.1603		H		1		UNL1		0.1536
41		H		-1.2321		-1.5778		-0.1435		H		1		UNL1		0.3471
42		H		-4.2013		0.6604		0.0125		H		1		UNL1		0.1882
43		H		-6.4913		-0.2562		0.2492		H		1		UNL1		0.1523
44		H		-4.8962		-4.2516		0.2826		H		1		UNL1		0.1557
45		H		-2.6202		-3.3398		0.0457		H		1		UNL1		0.1361
46		H		1.9295		-0.0683		-2.6196		H		1		UNL1		0.1482
47		H		3.3319		-2.1011		-2.8946		H		1		UNL1		0.1404
48		H		5.0061		-3.6627		-2.0044		H		1		UNL1		0.1351
49		H		6.5359		-4.3736		-0.1925		H		1		UNL1		0.1356
50		H		6.6644		-3.0492		1.9157		H		1		UNL1		0.1370
51		H		5.2813		-1.0368		2.2115		H		1		UNL1		0.1573
@<TRIPOS>BOND
1		47		23		1
2		46		22		1
3		48		25		1
4		23		22		ar
5		23		24		ar
6		22		21		ar
7		35		2		1
8		36		2		1
9		25		24		ar
10		25		26		ar
11		24		29		ar
12		39		6		1
13		21		20		1
14		21		30		ar
15		2		3		1
16		2		1		1
17		20		19		1
18		3		19		ar
19		3		4		ar
20		19		18		ar
21		18		8		ar
22		4		5		1
23		4		7		ar
24		5		37		1
25		5		6		1
26		8		7		ar
27		8		9		1
28		49		26		1
29		40		6		1
30		41		9		1
31		9		10		1
32		6		38		1
33		26		27		ar
34		10		11		ar
35		10		17		ar
36		42		11		1
37		45		17		1
38		11		12		ar
39		17		16		ar
40		12		43		1
41		12		13		ar
42		16		13		ar
43		16		44		1
44		29		30		ar
45		29		28		ar
46		13		14		1
47		30		31		1
48		14		15		3
49		34		1		1
50		1		32		1
51		1		33		1
52		27		28		ar
53		27		50		1
54		28		51		1

