@<TRIPOS>MOLECULE
WHQ-2013-BMC-6477-3-7i
 47 49 0 0 0
SMALL
MULLIKEN_CHARGES
****
Gaussian 16 #p B3LYP/6-31G* opt
@<TRIPOS>ATOM
1		C		-5.3911		-2.5450		1.1630		C.3		1		UNL1		-0.4497
2		C		-4.9182		-1.7293		-0.0550		C.3		1		UNL1		-0.3159
3		C		-3.4159		-1.6807		-0.1723		C.ar		1		UNL1		0.0578
4		C		-2.5996		-0.6488		0.2237		C.ar		1		UNL1		0.1421
5		C		-3.1581		0.5866		0.9002		C.2		1		UNL1		0.3637
6		O		-3.9863		0.4633		1.7920		O.2		1		UNL1		-0.4536
7		C		-2.6887		1.9455		0.4788		C.ar		1		UNL1		0.0837
8		C		-3.0243		3.0343		1.2993		C.ar		1		UNL1		-0.1554
9		C		-2.6573		4.3274		0.9369		C.ar		1		UNL1		-0.1352
10		C		-1.9644		4.5581		-0.2542		C.ar		1		UNL1		-0.1857
11		C		-1.6516		3.4697		-1.0607		C.ar		1		UNL1		0.3766
12		F		-0.9874		3.6837		-2.2168		F		1		UNL1		-0.2975
13		C		-1.9949		2.1689		-0.7196		C.ar		1		UNL1		-0.2308
14		N		-1.2219		-0.6426		0.1089		N.ar		1		UNL1		-0.5190
15		C		-0.6563		-1.7007		-0.3916		C.ar		1		UNL1		0.3241
16		S		1.1041		-1.8357		-0.5628		S.3		1		UNL1		0.1564
17		C		1.6515		-0.2290		0.1984		C.3		1		UNL1		-0.4927
18		C		3.1527		-0.1487		0.1529		C.ar		1		UNL1		0.1376
19		C		3.9312		-0.6263		1.2107		C.ar		1		UNL1		-0.1734
20		C		5.3254		-0.5554		1.1819		C.ar		1		UNL1		-0.1942
21		C		5.9652		0.0023		0.0682		C.ar		1		UNL1		0.3792
22		O		7.3149		0.1264		-0.0707		O.3		1		UNL1		-0.5036
23		C		8.1469		-0.3425		0.9798		C.3		1		UNL1		-0.2180
24		C		5.1965		0.4835		-1.0032		C.ar		1		UNL1		-0.1709
25		C		3.8121		0.4050		-0.9571		C.ar		1		UNL1		-0.1677
26		N		-1.3746		-2.7786		-0.8226		N.ar		1		UNL1		-0.6505
27		C		-2.7825		-2.8616		-0.7620		C.ar		1		UNL1		0.5870
28		O		-3.3495		-3.8630		-1.1781		O.2		1		UNL1		-0.5163
29		H		-5.0471		-2.0763		2.0892		H		1		UNL1		0.1668
30		H		-6.4857		-2.5908		1.1836		H		1		UNL1		0.1437
31		H		-5.0102		-3.5699		1.1153		H		1		UNL1		0.1614
32		H		-5.3060		-2.1968		-0.9671		H		1		UNL1		0.1623
33		H		-5.3266		-0.7179		0.0072		H		1		UNL1		0.1507
34		H		-3.5749		2.8421		2.2134		H		1		UNL1		0.1660
35		H		-2.9127		5.1654		1.5790		H		1		UNL1		0.1472
36		H		-1.6693		5.5557		-0.5630		H		1		UNL1		0.1541
37		H		-1.7201		1.3569		-1.3808		H		1		UNL1		0.1605
38		H		1.2634		-0.2080		1.2184		H		1		UNL1		0.2054
39		H		1.1744		0.5752		-0.3642		H		1		UNL1		0.2068
40		H		3.4445		-1.0610		2.0808		H		1		UNL1		0.1368
41		H		5.8947		-0.9310		2.0243		H		1		UNL1		0.1370
42		H		9.1714		-0.1462		0.6592		H		1		UNL1		0.1739
43		H		7.9517		0.1930		1.9182		H		1		UNL1		0.1546
44		H		8.0186		-1.4202		1.1452		H		1		UNL1		0.1552
45		H		5.7095		0.9160		-1.8564		H		1		UNL1		0.1448
46		H		3.2293		0.7830		-1.7938		H		1		UNL1		0.1386
47		H		-0.9134		-3.5952		-1.2121		H		1		UNL1		0.3561
@<TRIPOS>BOND
1		12		11		1
2		45		24		1
3		46		25		1
4		37		13		1
5		47		26		1
6		28		27		2
7		11		13		ar
8		11		10		ar
9		24		25		ar
10		24		21		ar
11		32		2		1
12		25		18		ar
13		26		27		ar
14		26		15		ar
15		27		3		ar
16		13		7		ar
17		36		10		1
18		16		15		1
19		16		17		1
20		15		14		ar
21		39		17		1
22		10		9		ar
23		3		2		1
24		3		4		ar
25		22		21		1
26		22		23		1
27		2		33		1
28		2		1		1
29		21		20		ar
30		14		4		ar
31		18		17		1
32		18		19		ar
33		17		38		1
34		4		5		1
35		7		5		1
36		7		8		ar
37		42		23		1
38		5		6		2
39		9		8		ar
40		9		35		1
41		23		44		1
42		23		43		1
43		31		1		1
44		1		30		1
45		1		29		1
46		20		19		ar
47		20		41		1
48		19		40		1
49		8		34		1

