@<TRIPOS>MOLECULE
WHQ-2015-BMC-624-3-3a
 41 43 0 0 0
SMALL
MULLIKEN_CHARGES
****
Gaussian 16 #p B3LYP/6-31G* opt
@<TRIPOS>ATOM
1		N		-8.0757		2.7893		0.1712		N.1		1		UNL1		-0.4829
2		C		-7.0656		2.2210		0.0636		C.1		1		UNL1		0.2286
3		C		-5.8237		1.5224		-0.0697		C.ar		1		UNL1		0.1324
4		C		-5.0011		1.7374		-1.1896		C.ar		1		UNL1		-0.1402
5		C		-3.8009		1.0571		-1.3115		C.ar		1		UNL1		-0.2057
6		C		-3.3832		0.1429		-0.3236		C.ar		1		UNL1		0.3808
7		N		-2.1584		-0.4945		-0.5408		N.pl3		1		UNL1		-0.7665
8		C		-1.4482		-1.4111		0.1991		C.ar		1		UNL1		0.7053
9		N		-1.9160		-1.8529		1.3701		N.ar		1		UNL1		-0.4866
10		C		-1.1345		-2.7420		2.0053		C.ar		1		UNL1		0.0718
11		C		0.0782		-3.1920		1.5143		C.ar		1		UNL1		-0.2213
12		C		0.4545		-2.6509		0.2728		C.ar		1		UNL1		0.5823
13		O		1.6374		-3.0578		-0.2502		O.3		1		UNL1		-0.5218
14		C		1.9909		-2.5789		-1.5596		C.3		1		UNL1		-0.1346
15		C		2.6588		-1.1986		-1.5739		C.2		1		UNL1		0.5904
16		O		2.7336		-0.5801		-2.6259		O.2		1		UNL1		-0.5011
17		N		3.1786		-0.8120		-0.3709		N.am		1		UNL1		-0.7173
18		C		3.8770		0.3727		-0.0463		C.ar		1		UNL1		0.3576
19		C		4.2783		0.5412		1.2875		C.ar		1		UNL1		-0.1952
20		C		4.9726		1.6808		1.6837		C.ar		1		UNL1		-0.2007
21		C		5.2608		2.6523		0.7328		C.ar		1		UNL1		0.3829
22		F		5.9334		3.7611		1.1092		F		1		UNL1		-0.2983
23		C		4.8736		2.5080		-0.5933		C.ar		1		UNL1		-0.2125
24		C		4.1796		1.3659		-0.9908		C.ar		1		UNL1		-0.1614
25		N		-0.2823		-1.7753		-0.3857		N.ar		1		UNL1		-0.5695
26		C		-4.2038		-0.0742		0.7980		C.ar		1		UNL1		-0.1583
27		C		-5.4068		0.6115		0.9145		C.ar		1		UNL1		-0.1531
28		H		-5.3092		2.4386		-1.9583		H		1		UNL1		0.1602
29		H		-3.1723		1.2320		-2.1817		H		1		UNL1		0.1413
30		H		-1.6749		-0.2429		-1.3938		H		1		UNL1		0.3518
31		H		-1.5137		-3.1066		2.9578		H		1		UNL1		0.1598
32		H		0.6959		-3.9154		2.0309		H		1		UNL1		0.1572
33		H		2.6992		-3.3170		-1.9461		H		1		UNL1		0.1941
34		H		1.1180		-2.5333		-2.2104		H		1		UNL1		0.2035
35		H		3.0296		-1.4619		0.3908		H		1		UNL1		0.3465
36		H		4.0462		-0.2252		2.0239		H		1		UNL1		0.1330
37		H		5.2877		1.8209		2.7122		H		1		UNL1		0.1505
38		H		5.1166		3.2869		-1.3087		H		1		UNL1		0.1532
39		H		3.8712		1.2352		-2.0186		H		1		UNL1		0.1940
40		H		-3.8888		-0.7728		1.5593		H		1		UNL1		0.1901
41		H		-6.0361		0.4401		1.7821		H		1		UNL1		0.1593
@<TRIPOS>BOND
1		16		15		2
2		34		14		1
3		29		5		1
4		39		24		1
5		28		4		1
6		33		14		1
7		15		14		1
8		15		17		1
9		14		13		1
10		30		7		1
11		5		4		ar
12		5		6		ar
13		38		23		1
14		4		3		ar
15		24		23		ar
16		24		18		ar
17		23		21		ar
18		7		6		1
19		7		8		1
20		25		8		ar
21		25		12		ar
22		17		18		1
23		17		35		1
24		6		26		ar
25		13		12		1
26		3		2		1
27		3		27		ar
28		18		19		ar
29		2		1		3
30		8		9		ar
31		12		11		ar
32		21		22		1
33		21		20		ar
34		26		27		ar
35		26		40		1
36		27		41		1
37		19		20		ar
38		19		36		1
39		9		10		ar
40		11		10		ar
41		11		32		1
42		20		37		1
43		10		31		1

