@<TRIPOS>MOLECULE
WHQ-2015-BMC-624-3-3i
 44 46 0 0 0
SMALL
MULLIKEN_CHARGES
****
Gaussian 16 #p B3LYP/6-31G* opt
@<TRIPOS>ATOM
1		C		-3.4234		4.2359		-0.3581		C.3		1		UNL1		-0.5142
2		C		-2.6520		2.9493		-0.2476		C.ar		1		UNL1		0.3440
3		C		-1.2667		2.9214		-0.2323		C.ar		1		UNL1		-0.2568
4		C		-0.6731		1.6516		-0.1240		C.ar		1		UNL1		0.6057
5		O		0.6718		1.6051		-0.1110		O.3		1		UNL1		-0.4853
6		C		1.2868		0.3289		0.0260		C.3		1		UNL1		-0.1209
7		C		2.7733		0.5765		0.3080		C.2		1		UNL1		0.6101
8		O		3.1480		1.4738		1.0416		O.2		1		UNL1		-0.4805
9		N		3.5945		-0.3454		-0.2996		N.am		1		UNL1		-0.7239
10		C		4.9929		-0.4986		-0.1747		C.ar		1		UNL1		0.3562
11		C		5.7917		0.3448		0.6120		C.ar		1		UNL1		-0.1551
12		C		7.1662		0.1237		0.6849		C.ar		1		UNL1		-0.1459
13		C		7.7470		-0.9275		-0.0213		C.ar		1		UNL1		-0.0628
14		CL		9.4819		-1.1948		0.0774		Cl		1		UNL1		-0.0220
15		C		6.9641		-1.7706		-0.8084		C.ar		1		UNL1		-0.1341
16		C		5.5921		-1.5526		-0.8808		C.ar		1		UNL1		-0.1914
17		N		-1.3708		0.5297		-0.0408		N.ar		1		UNL1		-0.5972
18		C		-2.7175		0.6774		-0.0605		C.ar		1		UNL1		0.7038
19		N		-3.3876		-0.5259		0.0361		N.pl3		1		UNL1		-0.7708
20		C		-4.7452		-0.8472		0.0527		C.ar		1		UNL1		0.3829
21		C		-5.0704		-2.2142		0.1707		C.ar		1		UNL1		-0.2062
22		C		-6.3899		-2.6338		0.1948		C.ar		1		UNL1		-0.1404
23		C		-7.4316		-1.6940		0.1011		C.ar		1		UNL1		0.1313
24		C		-8.7974		-2.1198		0.1244		C.1		1		UNL1		0.2272
25		N		-9.9082		-2.4679		0.1431		N.1		1		UNL1		-0.4846
26		C		-7.1079		-0.3321		-0.0160		C.ar		1		UNL1		-0.1537
27		C		-5.7862		0.0951		-0.0407		C.ar		1		UNL1		-0.1590
28		N		-3.3915		1.8196		-0.1619		N.ar		1		UNL1		-0.5442
29		H		-4.0761		4.3590		0.5135		H		1		UNL1		0.1803
30		H		-2.7602		5.1019		-0.4278		H		1		UNL1		0.1618
31		H		-4.0701		4.2121		-1.2425		H		1		UNL1		0.1790
32		H		-0.6572		3.8139		-0.2940		H		1		UNL1		0.1569
33		H		1.1168		-0.2698		-0.8777		H		1		UNL1		0.1518
34		H		0.8484		-0.2161		0.8699		H		1		UNL1		0.1938
35		H		3.1484		-1.0077		-0.9203		H		1		UNL1		0.3338
36		H		5.3359		1.1613		1.1539		H		1		UNL1		0.1982
37		H		7.7849		0.7751		1.2930		H		1		UNL1		0.1624
38		H		7.4200		-2.5874		-1.3573		H		1		UNL1		0.1588
39		H		4.9816		-2.2124		-1.4940		H		1		UNL1		0.1322
40		H		-2.7483		-1.3063		0.1111		H		1		UNL1		0.3418
41		H		-4.2733		-2.9506		0.2443		H		1		UNL1		0.1337
42		H		-6.6232		-3.6896		0.2862		H		1		UNL1		0.1576
43		H		-7.9061		0.4000		-0.0884		H		1		UNL1		0.1580
44		H		-5.5427		1.1437		-0.1305		H		1		UNL1		0.1878
@<TRIPOS>BOND
1		39		16		1
2		38		15		1
3		31		1		1
4		35		9		1
5		16		15		ar
6		16		10		ar
7		33		6		1
8		15		13		ar
9		30		1		1
10		1		2		1
11		1		29		1
12		9		10		1
13		9		7		1
14		32		3		1
15		2		3		ar
16		2		28		ar
17		3		4		ar
18		10		11		ar
19		28		18		ar
20		44		27		1
21		4		5		1
22		4		17		ar
23		5		6		1
24		43		26		1
25		18		17		ar
26		18		19		1
27		27		26		ar
28		27		20		ar
29		13		14		1
30		13		12		ar
31		26		23		ar
32		6		7		1
33		6		34		1
34		19		20		1
35		19		40		1
36		20		21		ar
37		23		24		1
38		23		22		ar
39		24		25		3
40		21		22		ar
41		21		41		1
42		22		42		1
43		7		8		2
44		11		12		ar
45		11		36		1
46		12		37		1

