@<TRIPOS>MOLECULE
WHQ-2014-SQER-761-54
 45 48 0 0 0
SMALL
MULLIKEN_CHARGES
****
Gaussian 16 #p B3LYP/6-31G* opt
@<TRIPOS>ATOM
1		C		4.2401		5.2082		0.0546		C.3		1		UNL1		-0.3006
2		N		4.3348		3.7641		0.0381		N.pl3		1		UNL1		-0.6380
3		C		3.2738		2.9173		0.0073		C.ar		1		UNL1		0.5716
4		C		1.9455		3.3688		-0.0360		C.ar		1		UNL1		-0.2787
5		C		0.9772		2.3669		-0.0643		C.ar		1		UNL1		0.5732
6		O		-0.3187		2.7814		-0.0839		O.3		1		UNL1		-0.5728
7		C		-1.3529		1.8632		-0.2468		C.ar		1		UNL1		0.3642
8		C		-1.4693		1.1174		-1.4447		C.ar		1		UNL1		-0.1361
9		C		-2.5569		0.2979		-1.6280		C.ar		1		UNL1		-0.2070
10		C		-3.5713		0.1906		-0.6370		C.ar		1		UNL1		0.1448
11		C		-4.7029		-0.6497		-0.8084		C.ar		1		UNL1		-0.2211
12		C		-5.6593		-0.7181		0.1759		C.ar		1		UNL1		0.0786
13		BR		-7.1832		-1.8516		-0.0553		Br		1		UNL1		-0.1302
14		C		-5.5503		0.0327		1.3689		C.ar		1		UNL1		-0.1528
15		C		-4.4612		0.8538		1.5520		C.ar		1		UNL1		-0.1908
16		C		-3.4447		0.9587		0.5653		C.ar		1		UNL1		0.1370
17		C		-2.3104		1.7954		0.7344		C.ar		1		UNL1		-0.2429
18		N		1.2433		1.0679		-0.0548		N.ar		1		UNL1		-0.5877
19		C		2.5568		0.7548		-0.0142		C.ar		1		UNL1		0.7159
20		N		2.7704		-0.6115		-0.0040		N.pl3		1		UNL1		-0.7784
21		C		3.9261		-1.3869		0.0367		C.ar		1		UNL1		0.3851
22		C		5.2337		-0.8662		0.0626		C.ar		1		UNL1		-0.1557
23		C		6.3219		-1.7284		0.1004		C.ar		1		UNL1		-0.1534
24		C		6.1471		-3.1222		0.1132		C.ar		1		UNL1		0.1301
25		C		7.2776		-3.9979		0.1519		C.1		1		UNL1		0.2257
26		N		8.1981		-4.7102		0.1832		N.1		1		UNL1		-0.4867
27		C		4.8403		-3.6416		0.0874		C.ar		1		UNL1		-0.1408
28		C		3.7517		-2.7869		0.0498		C.ar		1		UNL1		-0.2059
29		N		3.5841		1.5969		0.0177		N.ar		1		UNL1		-0.5941
30		H		5.2496		5.6232		0.0832		H		1		UNL1		0.1684
31		H		3.6946		5.5708		0.9360		H		1		UNL1		0.1694
32		H		3.7383		5.5910		-0.8437		H		1		UNL1		0.1700
33		H		5.2400		3.3205		0.0822		H		1		UNL1		0.3383
34		H		1.6668		4.4131		-0.0462		H		1		UNL1		0.1469
35		H		-0.6982		1.2036		-2.2019		H		1		UNL1		0.1477
36		H		-2.6555		-0.2780		-2.5445		H		1		UNL1		0.1413
37		H		-4.8051		-1.2333		-1.7176		H		1		UNL1		0.1537
38		H		-6.3237		-0.0455		2.1249		H		1		UNL1		0.1554
39		H		-4.3699		1.4346		2.4663		H		1		UNL1		0.1427
40		H		-2.1970		2.3883		1.6369		H		1		UNL1		0.1440
41		H		1.8949		-1.1188		-0.0203		H		1		UNL1		0.3481
42		H		5.3740		0.2045		0.0534		H		1		UNL1		0.1737
43		H		7.3271		-1.3189		0.1201		H		1		UNL1		0.1535
44		H		4.6874		-4.7160		0.0972		H		1		UNL1		0.1571
45		H		2.7462		-3.2010		0.0307		H		1		UNL1		0.1374
@<TRIPOS>BOND
1		36		9		1
2		35		8		1
3		37		11		1
4		9		8		ar
5		9		10		ar
6		8		7		ar
7		32		1		1
8		11		10		ar
9		11		12		ar
10		10		16		ar
11		7		6		1
12		7		17		ar
13		6		5		1
14		5		18		ar
15		5		4		ar
16		13		12		1
17		18		19		ar
18		34		4		1
19		4		3		ar
20		41		20		1
21		19		20		1
22		19		29		ar
23		20		21		1
24		3		29		ar
25		3		2		1
26		45		28		1
27		21		28		ar
28		21		22		ar
29		2		1		1
30		2		33		1
31		28		27		ar
32		42		22		1
33		1		30		1
34		1		31		1
35		22		23		ar
36		27		44		1
37		27		24		ar
38		23		24		ar
39		23		43		1
40		24		25		1
41		25		26		3
42		12		14		ar
43		16		17		ar
44		16		15		ar
45		17		40		1
46		14		15		ar
47		14		38		1
48		15		39		1

