@<TRIPOS>MOLECULE
WHQ-2014-SQER-761-60
 51 54 0 0 0
SMALL
MULLIKEN_CHARGES
****
Gaussian 16 #p B3LYP/6-31G* opt
@<TRIPOS>ATOM
1		C		-0.7579		4.7174		-1.5747		C.3		1		UNL1		-0.4386
2		C		-0.6844		3.9492		-0.2414		C.3		1		UNL1		-0.3558
3		C		0.1385		2.6844		-0.3021		C.ar		1		UNL1		0.0456
4		C		1.5357		2.6338		-0.0731		C.ar		1		UNL1		0.5239
5		N		2.2437		3.7648		0.2012		N.pl3		1		UNL1		-0.6491
6		C		3.6799		3.7816		0.4125		C.3		1		UNL1		-0.2889
7		N		2.2391		1.4805		-0.0897		N.ar		1		UNL1		-0.6010
8		C		1.5456		0.3729		-0.3433		C.ar		1		UNL1		0.7109
9		N		2.1763		-0.8599		-0.3582		N.pl3		1		UNL1		-0.7814
10		C		3.4956		-1.2482		-0.1515		C.ar		1		UNL1		0.3852
11		C		4.5550		-0.3587		0.1117		C.ar		1		UNL1		-0.1621
12		C		5.8407		-0.8489		0.2995		C.ar		1		UNL1		-0.1570
13		C		6.1134		-2.2255		0.2324		C.ar		1		UNL1		0.1297
14		C		7.4428		-2.7158		0.4275		C.1		1		UNL1		0.2247
15		N		8.5252		-3.1149		0.5859		N.1		1		UNL1		-0.4884
16		C		5.0547		-3.1134		-0.0309		C.ar		1		UNL1		-0.1414
17		C		3.7708		-2.6308		-0.2190		C.ar		1		UNL1		-0.2052
18		N		0.2319		0.2867		-0.6137		N.ar		1		UNL1		-0.5869
19		C		-0.4224		1.4417		-0.5899		C.ar		1		UNL1		0.5234
20		O		-1.7593		1.4328		-0.8892		O.3		1		UNL1		-0.5750
21		C		-2.4412		0.2286		-0.9357		C.ar		1		UNL1		0.3399
22		C		-2.4797		-0.4917		-2.1501		C.ar		1		UNL1		-0.1429
23		C		-3.2335		-1.6345		-2.2452		C.ar		1		UNL1		-0.2071
24		C		-3.9829		-2.1099		-1.1363		C.ar		1		UNL1		0.1542
25		C		-4.7678		-3.2903		-1.2224		C.ar		1		UNL1		-0.1980
26		C		-5.4920		-3.7421		-0.1435		C.ar		1		UNL1		-0.1303
27		C		-5.4612		-3.0258		1.0759		C.ar		1		UNL1		-0.1339
28		C		-4.7127		-1.8764		1.1971		C.ar		1		UNL1		-0.1868
29		C		-3.9536		-1.3837		0.1028		C.ar		1		UNL1		0.0879
30		C		-3.1584		-0.2017		0.1593		C.ar		1		UNL1		-0.0168
31		BR		-3.0618		0.8338		1.7593		Br		1		UNL1		-0.1087
32		H		-1.2206		4.0964		-2.3486		H		1		UNL1		0.1622
33		H		0.2381		5.0051		-1.9331		H		1		UNL1		0.1366
34		H		-1.3558		5.6298		-1.4683		H		1		UNL1		0.1476
35		H		-1.6972		3.6840		0.0770		H		1		UNL1		0.1795
36		H		-0.2889		4.6081		0.5449		H		1		UNL1		0.1308
37		H		1.7695		4.6468		0.0987		H		1		UNL1		0.3374
38		H		3.9574		3.1246		1.2424		H		1		UNL1		0.1807
39		H		4.2310		3.4572		-0.4791		H		1		UNL1		0.1695
40		H		3.9780		4.8034		0.6596		H		1		UNL1		0.1533
41		H		1.5187		-1.6042		-0.5528		H		1		UNL1		0.3466
42		H		4.3512		0.7004		0.1637		H		1		UNL1		0.1881
43		H		6.6518		-0.1561		0.5016		H		1		UNL1		0.1521
44		H		5.2476		-4.1800		-0.0858		H		1		UNL1		0.1554
45		H		2.9608		-3.3279		-0.4207		H		1		UNL1		0.1357
46		H		-1.9039		-0.1162		-2.9891		H		1		UNL1		0.1488
47		H		-3.2663		-2.1918		-3.1775		H		1		UNL1		0.1406
48		H		-4.7843		-3.8326		-2.1648		H		1		UNL1		0.1353
49		H		-6.0874		-4.6471		-0.2245		H		1		UNL1		0.1359
50		H		-6.0340		-3.3860		1.9259		H		1		UNL1		0.1373
51		H		-4.6919		-1.3314		2.1340		H		1		UNL1		0.1563
@<TRIPOS>BOND
1		47		23		1
2		46		22		1
3		32		1		1
4		23		22		ar
5		23		24		ar
6		48		25		1
7		22		21		ar
8		33		1		1
9		1		34		1
10		1		2		1
11		25		24		ar
12		25		26		ar
13		24		29		ar
14		21		20		1
15		21		30		ar
16		20		19		1
17		18		19		ar
18		18		8		ar
19		19		3		ar
20		41		9		1
21		39		6		1
22		45		17		1
23		9		8		1
24		9		10		1
25		8		7		ar
26		3		2		1
27		3		4		ar
28		2		35		1
29		2		36		1
30		49		26		1
31		17		10		ar
32		17		16		ar
33		10		11		ar
34		26		27		ar
35		7		4		ar
36		44		16		1
37		4		5		1
38		16		13		ar
39		37		5		1
40		29		30		ar
41		29		28		ar
42		11		42		1
43		11		12		ar
44		30		31		1
45		5		6		1
46		13		12		ar
47		13		14		1
48		12		43		1
49		6		40		1
50		6		38		1
51		14		15		3
52		27		28		ar
53		27		50		1
54		28		51		1

