@<TRIPOS>MOLECULE
WHQ-2015-BMC-624-3-3f
 42 44 0 0 0
SMALL
MULLIKEN_CHARGES
****
Gaussian 16 #p B3LYP/6-31G* opt
@<TRIPOS>ATOM
1		N		-7.3980		4.1938		-0.1129		N.1		1		UNL1		-0.4833
2		C		-6.5358		3.4155		-0.0350		C.1		1		UNL1		0.2281
3		C		-5.4752		2.4598		0.0628		C.ar		1		UNL1		0.1319
4		C		-5.6146		1.1766		-0.4908		C.ar		1		UNL1		-0.1532
5		C		-4.5935		0.2385		-0.4019		C.ar		1		UNL1		-0.1582
6		C		-3.3943		0.5723		0.2536		C.ar		1		UNL1		0.3826
7		N		-2.3089		-0.2942		0.4027		N.pl3		1		UNL1		-0.7668
8		C		-2.0941		-1.5913		-0.0109		C.ar		1		UNL1		0.7093
9		N		-3.0328		-2.2484		-0.6945		N.ar		1		UNL1		-0.4896
10		C		-2.7145		-3.5053		-1.0511		C.ar		1		UNL1		0.0709
11		C		-1.5086		-4.1084		-0.7482		C.ar		1		UNL1		-0.2145
12		C		-0.6079		-3.3091		-0.0243		C.ar		1		UNL1		0.6078
13		O		0.5766		-3.8630		0.3134		O.3		1		UNL1		-0.4856
14		C		1.5085		-3.0469		0.9995		C.3		1		UNL1		-0.1376
15		C		2.1438		-2.0052		0.0635		C.2		1		UNL1		0.6195
16		O		2.0657		-2.0753		-1.1476		O.2		1		UNL1		-0.4755
17		N		2.8359		-1.0303		0.7528		N.am		1		UNL1		-0.7339
18		C		3.6001		0.0179		0.2269		C.ar		1		UNL1		0.3172
19		C		3.7883		0.2802		-1.1388		C.ar		1		UNL1		-0.1695
20		C		4.5762		1.3565		-1.5370		C.ar		1		UNL1		-0.1480
21		C		5.1903		2.1931		-0.5918		C.ar		1		UNL1		0.1360
22		C		5.9983		3.2976		-1.0136		C.1		1		UNL1		0.2359
23		N		6.6549		4.1948		-1.3563		N.1		1		UNL1		-0.4713
24		C		5.0079		1.9421		0.7800		C.ar		1		UNL1		-0.2118
25		C		4.2248		0.8710		1.1517		C.ar		1		UNL1		0.3141
26		F		4.0314		0.6059		2.4696		F		1		UNL1		-0.2999
27		N		-0.8804		-2.0706		0.3511		N.ar		1		UNL1		-0.5922
28		C		-3.2538		1.8605		0.8084		C.ar		1		UNL1		-0.2058
29		C		-4.2752		2.7912		0.7163		C.ar		1		UNL1		-0.1400
30		H		-6.5375		0.9130		-0.9977		H		1		UNL1		0.1596
31		H		-4.7067		-0.7464		-0.8310		H		1		UNL1		0.1915
32		H		-1.5094		0.0825		0.8945		H		1		UNL1		0.3418
33		H		-3.4770		-4.0437		-1.6101		H		1		UNL1		0.1590
34		H		-1.2574		-5.1188		-1.0434		H		1		UNL1		0.1607
35		H		2.2838		-3.7358		1.3496		H		1		UNL1		0.1957
36		H		1.0426		-2.5593		1.8627		H		1		UNL1		0.1772
37		H		2.8063		-1.0578		1.7644		H		1		UNL1		0.3484
38		H		3.3136		-0.3622		-1.8667		H		1		UNL1		0.2074
39		H		4.7175		1.5530		-2.5943		H		1		UNL1		0.1702
40		H		5.4656		2.5657		1.5391		H		1		UNL1		0.1788
41		H		-2.3300		2.1286		1.3160		H		1		UNL1		0.1342
42		H		-4.1516		3.7790		1.1484		H		1		UNL1		0.1589
@<TRIPOS>BOND
1		39		20		1
2		38		19		1
3		33		10		1
4		20		19		ar
5		20		21		ar
6		23		22		3
7		16		15		2
8		19		18		ar
9		10		11		ar
10		10		9		ar
11		34		11		1
12		22		21		1
13		30		4		1
14		31		5		1
15		11		12		ar
16		9		8		ar
17		21		24		ar
18		4		5		ar
19		4		3		ar
20		5		6		ar
21		1		2		3
22		2		3		1
23		12		13		1
24		12		27		ar
25		8		27		ar
26		8		7		1
27		3		29		ar
28		15		17		1
29		15		14		1
30		18		17		1
31		18		25		ar
32		6		7		1
33		6		28		ar
34		13		14		1
35		7		32		1
36		29		28		ar
37		29		42		1
38		17		37		1
39		24		25		ar
40		24		40		1
41		28		41		1
42		14		35		1
43		14		36		1
44		25		26		1

