@<TRIPOS>MOLECULE
WHQ-2014-SQER-761-5
 43 46 0 0 0
SMALL
MULLIKEN_CHARGES
****
Gaussian 16 #p B3LYP/6-31G* opt
@<TRIPOS>ATOM
1		C		0.7653		-2.3706		-2.1730		C.3		1		UNL1		-0.5143
2		C		0.7301		-1.3614		-1.0571		C.ar		1		UNL1		0.3410
3		C		-0.4695		-0.9457		-0.4862		C.ar		1		UNL1		-0.2561
4		C		-0.3655		0.0036		0.5421		C.ar		1		UNL1		0.5444
5		O		-1.4383		0.5291		1.1990		O.3		1		UNL1		-0.5400
6		C		-2.7219		0.0659		0.9274		C.ar		1		UNL1		0.2514
7		C		-3.1738		-1.0876		1.5206		C.ar		1		UNL1		-0.1540
8		C		-4.5007		-1.5176		1.2996		C.ar		1		UNL1		-0.1565
9		C		-5.3394		-0.7788		0.4977		C.ar		1		UNL1		-0.1308
10		CL		-6.9822		-1.3613		0.2526		Cl		1		UNL1		-0.0063
11		C		-4.9143		0.4317		-0.1256		C.ar		1		UNL1		0.1257
12		C		-5.7479		1.2289		-0.9538		C.ar		1		UNL1		-0.1974
13		C		-5.2745		2.3902		-1.5216		C.ar		1		UNL1		-0.1282
14		C		-3.9462		2.8166		-1.2884		C.ar		1		UNL1		-0.1305
15		C		-3.1081		2.0700		-0.4926		C.ar		1		UNL1		-0.1896
16		C		-3.5628		0.8639		0.1026		C.ar		1		UNL1		0.1157
17		N		0.7903		0.4896		0.9606		N.ar		1		UNL1		-0.5497
18		C		1.8875		0.0134		0.3386		C.ar		1		UNL1		0.6985
19		N		3.0576		0.5589		0.8260		N.pl3		1		UNL1		-0.7714
20		C		4.3978		0.3675		0.4906		C.ar		1		UNL1		0.3826
21		C		4.8496		-0.5093		-0.5133		C.ar		1		UNL1		-0.1596
22		C		6.2104		-0.6249		-0.7680		C.ar		1		UNL1		-0.1538
23		C		7.1537		0.1194		-0.0406		C.ar		1		UNL1		0.1310
24		C		8.5521		-0.0099		-0.3141		C.1		1		UNL1		0.2268
25		N		9.6902		-0.1144		-0.5360		N.1		1		UNL1		-0.4856
26		C		6.7003		0.9949		0.9621		C.ar		1		UNL1		-0.1407
27		C		5.3452		1.1146		1.2208		C.ar		1		UNL1		-0.2058
28		N		1.9218		-0.8871		-0.6478		N.ar		1		UNL1		-0.5398
29		H		-0.2374		-2.7071		-2.4493		H		1		UNL1		0.1603
30		H		1.3613		-3.2403		-1.8745		H		1		UNL1		0.1806
31		H		1.2493		-1.9379		-3.0557		H		1		UNL1		0.1811
32		H		-1.4228		-1.3309		-0.8216		H		1		UNL1		0.1579
33		H		-2.5112		-1.6607		2.1608		H		1		UNL1		0.1564
34		H		-4.8593		-2.4289		1.7651		H		1		UNL1		0.1635
35		H		-6.7684		0.9097		-1.1319		H		1		UNL1		0.1624
36		H		-5.9282		2.9869		-2.1514		H		1		UNL1		0.1423
37		H		-3.5888		3.7389		-1.7373		H		1		UNL1		0.1423
38		H		-2.0924		2.3957		-0.2971		H		1		UNL1		0.1597
39		H		2.8759		1.2216		1.5692		H		1		UNL1		0.3489
40		H		4.1289		-1.0845		-1.0761		H		1		UNL1		0.1857
41		H		6.5517		-1.3032		-1.5438		H		1		UNL1		0.1566
42		H		7.4162		1.5771		1.5333		H		1		UNL1		0.1576
43		H		5.0066		1.7949		1.9988		H		1		UNL1		0.1375
@<TRIPOS>BOND
1		31		1		1
2		29		1		1
3		1		30		1
4		1		2		1
5		36		13		1
6		37		14		1
7		41		22		1
8		13		14		ar
9		13		12		ar
10		14		15		ar
11		35		12		1
12		40		21		1
13		2		28		ar
14		2		3		ar
15		12		11		ar
16		32		3		1
17		22		21		ar
18		22		23		ar
19		28		18		ar
20		25		24		3
21		21		20		ar
22		15		38		1
23		15		16		ar
24		3		4		ar
25		24		23		1
26		11		16		ar
27		11		9		ar
28		23		26		ar
29		16		6		ar
30		10		9		1
31		18		19		1
32		18		17		ar
33		20		19		1
34		20		27		ar
35		9		8		ar
36		4		17		ar
37		4		5		1
38		19		39		1
39		6		5		1
40		6		7		ar
41		26		27		ar
42		26		42		1
43		27		43		1
44		8		7		ar
45		8		34		1
46		7		33		1

