@<TRIPOS>MOLECULE
WHQ-2014-MCC-5468-3-1h
 49 51 0 0 0
SMALL
MULLIKEN_CHARGES
****
Gaussian 16 #p B3LYP/6-31G* opt
@<TRIPOS>ATOM
1		C		-4.5753		3.0014		0.7384		C.3		1		UNL1		-0.4538
2		C		-4.1955		1.8206		-0.1766		C.3		1		UNL1		-0.3507
3		C		-2.7046		1.6248		-0.3041		C.ar		1		UNL1		0.0661
4		C		-1.9472		0.6364		0.2716		C.ar		1		UNL1		0.2390
5		C		-2.4958		-0.5121		1.1454		C.3		1		UNL1		-0.3151
6		C		-3.3562		-0.0473		2.2431		C.1		1		UNL1		0.3674
7		N		-3.9496		0.3339		3.1646		N.1		1		UNL1		-0.4820
8		C		-3.0491		-1.6701		0.3064		C.ar		1		UNL1		0.1004
9		C		-2.1338		-2.5013		-0.3573		C.ar		1		UNL1		-0.1800
10		C		-2.5564		-3.5645		-1.1516		C.ar		1		UNL1		-0.1269
11		C		-3.9207		-3.8283		-1.2934		C.ar		1		UNL1		-0.1273
12		C		-4.8517		-3.0223		-0.6431		C.ar		1		UNL1		-0.1892
13		C		-4.4034		-1.9626		0.1387		C.ar		1		UNL1		0.3340
14		F		-5.3372		-1.1996		0.7507		F		1		UNL1		-0.2795
15		N		-0.5788		0.5096		0.1160		N.ar		1		UNL1		-0.5339
16		C		0.0356		1.3894		-0.6193		C.ar		1		UNL1		0.3301
17		S		1.7905		1.3479		-0.8763		S.3		1		UNL1		0.1613
18		C		2.2676		-0.1152		0.1660		C.3		1		UNL1		-0.4928
19		C		3.7628		-0.2776		0.1350		C.ar		1		UNL1		0.1373
20		C		4.3839		-1.0546		-0.8569		C.ar		1		UNL1		-0.1681
21		C		5.7623		-1.2091		-0.8886		C.ar		1		UNL1		-0.1705
22		C		6.5635		-0.5814		0.0781		C.ar		1		UNL1		0.3798
23		O		7.9037		-0.7958		-0.0362		O.3		1		UNL1		-0.5033
24		C		8.7683		-0.1861		0.9112		C.3		1		UNL1		-0.2187
25		C		5.9620		0.1996		1.0727		C.ar		1		UNL1		-0.1941
26		C		4.5734		0.3442		1.0887		C.ar		1		UNL1		-0.1729
27		N		-0.6232		2.4086		-1.2364		N.ar		1		UNL1		-0.6501
28		C		-2.0178		2.6096		-1.1416		C.ar		1		UNL1		0.5863
29		O		-2.5330		3.5432		-1.7421		O.2		1		UNL1		-0.5157
30		H		-4.1299		3.9307		0.3725		H		1		UNL1		0.1671
31		H		-4.2448		2.8257		1.7665		H		1		UNL1		0.1655
32		H		-5.6635		3.1268		0.7513		H		1		UNL1		0.1469
33		H		-4.6787		0.9105		0.1803		H		1		UNL1		0.1610
34		H		-4.5855		2.0209		-1.1818		H		1		UNL1		0.1650
35		H		-1.6012		-0.9036		1.6427		H		1		UNL1		0.2215
36		H		-1.0733		-2.2938		-0.2465		H		1		UNL1		0.1531
37		H		-1.8227		-4.1893		-1.6520		H		1		UNL1		0.1389
38		H		-4.2609		-4.6581		-1.9058		H		1		UNL1		0.1447
39		H		-5.9199		-3.1936		-0.7245		H		1		UNL1		0.1559
40		H		1.8891		0.0707		1.1727		H		1		UNL1		0.2045
41		H		1.7494		-0.9860		-0.2402		H		1		UNL1		0.1993
42		H		3.7758		-1.5470		-1.6122		H		1		UNL1		0.1357
43		H		6.2456		-1.8129		-1.6500		H		1		UNL1		0.1451
44		H		9.7786		-0.4879		0.6302		H		1		UNL1		0.1747
45		H		8.6941		0.9087		0.8781		H		1		UNL1		0.1559
46		H		8.5565		-0.5324		1.9312		H		1		UNL1		0.1553
47		H		6.5566		0.6926		1.8330		H		1		UNL1		0.1385
48		H		4.1169		0.9533		1.8654		H		1		UNL1		0.1381
49		H		-0.1292		3.0891		-1.8055		H		1		UNL1		0.3562
@<TRIPOS>BOND
1		38		11		1
2		49		27		1
3		29		28		2
4		37		10		1
5		43		21		1
6		42		20		1
7		11		10		ar
8		11		12		ar
9		27		28		ar
10		27		16		ar
11		34		2		1
12		10		9		ar
13		28		3		ar
14		21		20		ar
15		21		22		ar
16		17		16		1
17		17		18		1
18		20		19		ar
19		39		12		1
20		12		13		ar
21		16		15		ar
22		9		36		1
23		9		8		ar
24		3		2		1
25		3		4		ar
26		41		18		1
27		2		33		1
28		2		1		1
29		23		22		1
30		23		24		1
31		22		25		ar
32		15		4		ar
33		19		18		1
34		19		26		ar
35		13		8		ar
36		13		14		1
37		18		40		1
38		4		5		1
39		8		5		1
40		30		1		1
41		44		24		1
42		1		32		1
43		1		31		1
44		45		24		1
45		24		46		1
46		25		26		ar
47		25		47		1
48		26		48		1
49		5		35		1
50		5		6		1
51		6		7		3

