@<TRIPOS>MOLECULE
WHQ-2014-SQER-761-26
 40 43 0 0 0
SMALL
MULLIKEN_CHARGES
****
Gaussian 16 #p B3LYP/6-31G* opt
@<TRIPOS>ATOM
1		N		8.7511		-3.9446		-0.5498		N.1		1		UNL1		-0.4844
2		C		7.7951		-3.2984		-0.3958		C.1		1		UNL1		0.2277
3		C		6.6191		-2.5055		-0.2062		C.ar		1		UNL1		0.1316
4		C		6.7069		-1.1071		-0.1079		C.ar		1		UNL1		-0.1534
5		C		5.5734		-0.3252		0.0768		C.ar		1		UNL1		-0.1589
6		C		4.3100		-0.9377		0.1684		C.ar		1		UNL1		0.3822
7		N		3.1108		-0.2476		0.3555		N.pl3		1		UNL1		-0.7682
8		C		2.8227		1.0932		0.4865		C.ar		1		UNL1		0.7028
9		N		3.7972		2.0062		0.4402		N.ar		1		UNL1		-0.4875
10		C		3.3975		3.2817		0.5757		C.ar		1		UNL1		0.0699
11		C		2.0787		3.6607		0.7519		C.ar		1		UNL1		-0.2129
12		C		1.1585		2.6012		0.7836		C.ar		1		UNL1		0.5802
13		O		-0.1493		2.9257		0.9666		O.3		1		UNL1		-0.5594
14		C		-1.1066		1.9188		0.9733		C.ar		1		UNL1		0.3319
15		C		-1.5349		1.4267		2.2252		C.ar		1		UNL1		-0.1502
16		C		-2.5456		0.5003		2.2912		C.ar		1		UNL1		-0.2008
17		C		-3.1717		0.0252		1.1088		C.ar		1		UNL1		0.1548
18		C		-4.2177		-0.9336		1.1672		C.ar		1		UNL1		-0.2260
19		C		-4.8103		-1.3780		0.0114		C.ar		1		UNL1		0.0840
20		BR		-6.2156		-2.6687		0.0946		Br		1		UNL1		-0.1184
21		C		-4.4011		-0.8987		-1.2530		C.ar		1		UNL1		-0.1503
22		C		-3.3905		0.0310		-1.3349		C.ar		1		UNL1		-0.1876
23		C		-2.7451		0.5220		-0.1689		C.ar		1		UNL1		0.0936
24		C		-1.6945		1.4846		-0.1949		C.ar		1		UNL1		-0.0051
25		BR		-1.0731		2.1992		-1.8463		Br		1		UNL1		-0.0961
26		N		1.5028		1.3346		0.6582		N.ar		1		UNL1		-0.5596
27		C		4.2216		-2.3412		0.0693		C.ar		1		UNL1		-0.2058
28		C		5.3552		-3.1150		-0.1150		C.ar		1		UNL1		-0.1404
29		H		7.6787		-0.6287		-0.1777		H		1		UNL1		0.1586
30		H		5.6479		0.7500		0.1509		H		1		UNL1		0.1904
31		H		2.2749		-0.8164		0.4015		H		1		UNL1		0.3493
32		H		4.1867		4.0298		0.5379		H		1		UNL1		0.1584
33		H		1.7641		4.6910		0.8558		H		1		UNL1		0.1610
34		H		-1.0497		1.8044		3.1192		H		1		UNL1		0.1551
35		H		-2.8791		0.1203		3.2526		H		1		UNL1		0.1495
36		H		-4.5407		-1.3084		2.1329		H		1		UNL1		0.1590
37		H		-4.8865		-1.2669		-2.1500		H		1		UNL1		0.1617
38		H		-3.0750		0.3994		-2.3042		H		1		UNL1		0.1672
39		H		3.2493		-2.8237		0.1382		H		1		UNL1		0.1377
40		H		5.2706		-4.1943		-0.1894		H		1		UNL1		0.1584
@<TRIPOS>BOND
1		38		22		1
2		37		21		1
3		25		24		1
4		22		21		ar
5		22		23		ar
6		21		19		ar
7		1		2		3
8		2		3		1
9		3		28		ar
10		3		4		ar
11		24		23		ar
12		24		14		ar
13		40		28		1
14		29		4		1
15		23		17		ar
16		28		27		ar
17		4		5		ar
18		19		20		1
19		19		18		ar
20		27		39		1
21		27		6		ar
22		5		30		1
23		5		6		ar
24		6		7		1
25		7		31		1
26		7		8		1
27		9		8		ar
28		9		10		ar
29		8		26		ar
30		32		10		1
31		10		11		ar
32		26		12		ar
33		11		12		ar
34		11		33		1
35		12		13		1
36		13		14		1
37		14		15		ar
38		17		18		ar
39		17		16		ar
40		18		36		1
41		15		16		ar
42		15		34		1
43		16		35		1

