@<TRIPOS>MOLECULE
WHQ-2013-BMC-6477-3-7d
 44 46 0 0 0
SMALL
MULLIKEN_CHARGES
****
Gaussian 16 #p B3LYP/6-31G* opt
@<TRIPOS>ATOM
1		C		-4.9037		-3.7126		-2.6653		C.3		1		UNL1		-0.2176
2		O		-5.1513		-3.5964		-1.2722		O.3		1		UNL1		-0.5047
3		C		-4.2719		-2.8788		-0.5173		C.ar		1		UNL1		0.3784
4		C		-4.5735		-2.7944		0.8514		C.ar		1		UNL1		-0.1704
5		C		-3.7390		-2.0874		1.7043		C.ar		1		UNL1		-0.1760
6		C		-2.5847		-1.4452		1.2258		C.ar		1		UNL1		0.1825
7		C		-1.6825		-0.6860		2.1565		C.3		1		UNL1		-0.5309
8		S		-2.2306		1.0582		2.5267		S.3		1		UNL1		0.1480
9		C		-1.4933		1.9564		1.1843		C.ar		1		UNL1		0.3396
10		N		-0.5906		1.4431		0.4034		N.ar		1		UNL1		-0.5205
11		C		-0.0827		2.2412		-0.6050		C.ar		1		UNL1		0.1510
12		C		0.8801		1.5215		-1.5273		C.2		1		UNL1		0.3559
13		O		0.7568		1.6453		-2.7386		O.2		1		UNL1		-0.4578
14		C		1.9608		0.6611		-0.9536		C.ar		1		UNL1		0.0855
15		C		2.6555		-0.1822		-1.8359		C.ar		1		UNL1		-0.1571
16		C		3.7029		-0.9788		-1.3878		C.ar		1		UNL1		-0.1512
17		C		4.0702		-0.9177		-0.0423		C.ar		1		UNL1		0.0908
18		BR		5.5097		-2.0032		0.5842		Br		1		UNL1		-0.1139
19		C		3.4085		-0.0778		0.8525		C.ar		1		UNL1		-0.1593
20		C		2.3516		0.7057		0.3936		C.ar		1		UNL1		-0.1562
21		C		-0.4389		3.5503		-0.8180		C.ar		1		UNL1		0.0561
22		C		0.0853		4.4590		-1.8926		C.3		1		UNL1		-0.5051
23		C		-1.4326		4.1423		0.0785		C.ar		1		UNL1		0.5828
24		O		-1.8573		5.2882		0.0369		O.2		1		UNL1		-0.5089
25		N		-1.9207		3.2451		1.0534		N.ar		1		UNL1		-0.6504
26		C		-2.2951		-1.5396		-0.1383		C.ar		1		UNL1		-0.1874
27		C		-3.1243		-2.2480		-1.0112		C.ar		1		UNL1		-0.1941
28		H		-3.9510		-4.2206		-2.8646		H		1		UNL1		0.1541
29		H		-4.8991		-2.7312		-3.1572		H		1		UNL1		0.1561
30		H		-5.7229		-4.3128		-3.0651		H		1		UNL1		0.1723
31		H		-5.4642		-3.2946		1.2182		H		1		UNL1		0.1418
32		H		-3.9866		-2.0324		2.7623		H		1		UNL1		0.1278
33		H		-0.6659		-0.5997		1.7699		H		1		UNL1		0.2225
34		H		-1.6442		-1.1428		3.1496		H		1		UNL1		0.1920
35		H		2.3586		-0.1969		-2.8794		H		1		UNL1		0.1719
36		H		4.2331		-1.6359		-2.0684		H		1		UNL1		0.1617
37		H		3.7157		-0.0385		1.8918		H		1		UNL1		0.1604
38		H		1.8334		1.3538		1.0905		H		1		UNL1		0.1586
39		H		0.2832		5.4491		-1.4700		H		1		UNL1		0.1744
40		H		0.9843		4.0677		-2.3677		H		1		UNL1		0.1690
41		H		-0.6712		4.5980		-2.6749		H		1		UNL1		0.1809
42		H		-2.6430		3.6203		1.6607		H		1		UNL1		0.3584
43		H		-1.4086		-1.0489		-0.5284		H		1		UNL1		0.1514
44		H		-2.8653		-2.3013		-2.0624		H		1		UNL1		0.1378
@<TRIPOS>BOND
1		29		1		1
2		30		1		1
3		35		15		1
4		28		1		1
5		13		12		2
6		41		22		1
7		1		2		1
8		40		22		1
9		36		16		1
10		44		27		1
11		22		39		1
12		22		21		1
13		15		16		ar
14		15		14		ar
15		12		14		1
16		12		11		1
17		16		17		ar
18		2		3		1
19		27		3		ar
20		27		26		ar
21		14		20		ar
22		21		11		ar
23		21		23		ar
24		11		10		ar
25		43		26		1
26		3		4		ar
27		26		6		ar
28		17		18		1
29		17		19		ar
30		24		23		2
31		23		25		ar
32		20		19		ar
33		20		38		1
34		10		9		ar
35		4		31		1
36		4		5		ar
37		19		37		1
38		25		9		ar
39		25		42		1
40		9		8		1
41		6		5		ar
42		6		7		1
43		5		32		1
44		33		7		1
45		7		8		1
46		7		34		1

