@<TRIPOS>MOLECULE
WHQ-2014-SQER-761-66
 54 57 0 0 0
SMALL
MULLIKEN_CHARGES
****
Gaussian 16 #p B3LYP/6-31G* opt
@<TRIPOS>ATOM
1		C		-3.7534		3.7353		0.2478		C.3		1		UNL1		-0.2887
2		N		-2.3370		3.7458		-0.0739		N.pl3		1		UNL1		-0.6478
3		C		-1.5995		2.6080		-0.2278		C.ar		1		UNL1		0.5100
4		N		-2.3037		1.4553		-0.1655		N.ar		1		UNL1		-0.5987
5		C		-1.6114		0.3301		-0.3070		C.ar		1		UNL1		0.7108
6		N		-2.2482		-0.8988		-0.2638		N.pl3		1		UNL1		-0.7819
7		C		-3.5774		-1.2672		-0.0855		C.ar		1		UNL1		0.3849
8		C		-3.8624		-2.6494		-0.0938		C.ar		1		UNL1		-0.2051
9		C		-5.1560		-3.1126		0.0747		C.ar		1		UNL1		-0.1414
10		C		-6.2149		-2.2050		0.2582		C.ar		1		UNL1		0.1298
11		C		-7.5544		-2.6754		0.4323		C.1		1		UNL1		0.2248
12		N		-8.6449		-3.0583		0.5738		N.1		1		UNL1		-0.4882
13		C		-5.9322		-0.8288		0.2673		C.ar		1		UNL1		-0.1575
14		C		-4.6367		-0.3581		0.0989		C.ar		1		UNL1		-0.1620
15		N		-0.2858		0.2223		-0.4892		N.ar		1		UNL1		-0.5872
16		C		0.3729		1.3730		-0.5505		C.ar		1		UNL1		0.5185
17		O		1.7302		1.3090		-0.7264		O.3		1		UNL1		-0.5734
18		C		2.3511		0.0769		-0.8475		C.ar		1		UNL1		0.3453
19		C		2.3041		-0.6001		-2.0876		C.ar		1		UNL1		-0.1386
20		C		3.0048		-1.7668		-2.2586		C.ar		1		UNL1		-0.2069
21		C		3.7879		-2.3103		-1.2054		C.ar		1		UNL1		0.1540
22		C		4.5205		-3.5153		-1.3715		C.ar		1		UNL1		-0.1982
23		C		5.2778		-4.0331		-0.3461		C.ar		1		UNL1		-0.1303
24		C		5.3341		-3.3609		0.8970		C.ar		1		UNL1		-0.1339
25		C		4.6378		-2.1893		1.0948		C.ar		1		UNL1		-0.1872
26		C		3.8464		-1.6290		0.0575		C.ar		1		UNL1		0.0862
27		C		3.0999		-0.4213		0.1956		C.ar		1		UNL1		-0.0232
28		BR		3.1131		0.5471		1.8394		Br		1		UNL1		-0.1026
29		C		-0.1963		2.6467		-0.4531		C.ar		1		UNL1		0.0426
30		C		0.6093		3.9387		-0.5408		C.3		1		UNL1		-0.1506
31		C		1.5041		4.1497		0.6983		C.3		1		UNL1		-0.4486
32		C		1.4110		4.0729		-1.8522		C.3		1		UNL1		-0.4472
33		H		-3.9584		3.2407		1.2057		H		1		UNL1		0.1688
34		H		-4.0978		4.7711		0.3020		H		1		UNL1		0.1525
35		H		-4.3217		3.2184		-0.5308		H		1		UNL1		0.1800
36		H		-1.8374		4.6074		0.0690		H		1		UNL1		0.3365
37		H		-1.5870		-1.6572		-0.3732		H		1		UNL1		0.3469
38		H		-3.0525		-3.3615		-0.2345		H		1		UNL1		0.1360
39		H		-5.3566		-4.1792		0.0658		H		1		UNL1		0.1556
40		H		-6.7432		-0.1211		0.4092		H		1		UNL1		0.1523
41		H		-4.4247		0.7007		0.1087		H		1		UNL1		0.1891
42		H		1.7070		-0.1728		-2.8860		H		1		UNL1		0.1494
43		H		2.9714		-2.2898		-3.2107		H		1		UNL1		0.1409
44		H		4.4702		-4.0228		-2.3317		H		1		UNL1		0.1354
45		H		5.8328		-4.9562		-0.4879		H		1		UNL1		0.1360
46		H		5.9330		-3.7726		1.7046		H		1		UNL1		0.1374
47		H		4.6845		-1.6785		2.0498		H		1		UNL1		0.1563
48		H		-0.1047		4.7724		-0.5616		H		1		UNL1		0.1075
49		H		2.2295		3.3384		0.8040		H		1		UNL1		0.1829
50		H		2.0533		5.0957		0.6183		H		1		UNL1		0.1384
51		H		0.9037		4.1819		1.6149		H		1		UNL1		0.1371
52		H		2.2162		3.3373		-1.9074		H		1		UNL1		0.1715
53		H		1.8580		5.0722		-1.9143		H		1		UNL1		0.1390
54		H		0.7613		3.9380		-2.7243		H		1		UNL1		0.1427
@<TRIPOS>BOND
1		43		20		1
2		42		19		1
3		54		32		1
4		44		22		1
5		20		19		ar
6		20		21		ar
7		19		18		ar
8		53		32		1
9		52		32		1
10		32		30		1
11		22		21		ar
12		22		23		ar
13		21		26		ar
14		18		17		1
15		18		27		ar
16		17		16		1
17		48		30		1
18		16		15		ar
19		16		29		ar
20		30		29		1
21		30		31		1
22		35		1		1
23		15		5		ar
24		45		23		1
25		29		3		ar
26		37		6		1
27		23		24		ar
28		5		6		1
29		5		4		ar
30		6		7		1
31		38		8		1
32		3		4		ar
33		3		2		1
34		8		7		ar
35		8		9		ar
36		7		14		ar
37		2		36		1
38		2		1		1
39		26		27		ar
40		26		25		ar
41		39		9		1
42		9		10		ar
43		14		41		1
44		14		13		ar
45		27		28		1
46		1		34		1
47		1		33		1
48		10		13		ar
49		10		11		1
50		13		40		1
51		11		12		3
52		50		31		1
53		31		49		1
54		31		51		1
55		24		25		ar
56		24		46		1
57		25		47		1

