@<TRIPOS>MOLECULE
WHQ-2014-SQER-761-31
 40 43 0 0 0
SMALL
MULLIKEN_CHARGES
****
Gaussian 16 #p B3LYP/6-31G* opt
@<TRIPOS>ATOM
1		N		9.0032		-3.9171		0.0367		N.1		1		UNL1		-0.4824
2		C		8.2424		-3.0364		0.0126		C.1		1		UNL1		0.2291
3		C		7.3085		-1.9523		-0.0173		C.ar		1		UNL1		0.1329
4		C		5.9274		-2.1963		0.0539		C.ar		1		UNL1		-0.1536
5		C		5.0091		-1.1536		0.0259		C.ar		1		UNL1		-0.1614
6		C		5.4649		0.1733		-0.0754		C.ar		1		UNL1		0.3802
7		N		4.6309		1.2950		-0.1117		N.pl3		1		UNL1		-0.7671
8		C		3.2650		1.4332		-0.0647		C.ar		1		UNL1		0.7012
9		N		2.8566		2.7220		-0.1282		N.ar		1		UNL1		-0.4940
10		C		1.5516		2.8946		-0.0903		C.ar		1		UNL1		0.1300
11		CL		0.9765		4.5505		-0.1763		Cl		1		UNL1		0.0189
12		C		0.6128		1.8693		0.0100		C.ar		1		UNL1		-0.2113
13		C		1.1705		0.5871		0.0732		C.ar		1		UNL1		0.5442
14		O		0.4357		-0.5480		0.1631		O.3		1		UNL1		-0.5307
15		C		-0.9486		-0.4711		0.3232		C.ar		1		UNL1		0.3147
16		C		-1.4767		-0.2110		1.6097		C.ar		1		UNL1		-0.1518
17		C		-2.8400		-0.2135		1.7915		C.ar		1		UNL1		-0.1991
18		C		-3.7225		-0.4788		0.7088		C.ar		1		UNL1		0.1455
19		C		-5.1326		-0.4877		0.8773		C.ar		1		UNL1		-0.2190
20		C		-5.9478		-0.7535		-0.1963		C.ar		1		UNL1		0.0797
21		BR		-7.8450		-0.7646		0.0297		Br		1		UNL1		-0.1186
22		C		-5.4183		-1.0227		-1.4801		C.ar		1		UNL1		-0.1505
23		C		-4.0550		-1.0194		-1.6636		C.ar		1		UNL1		-0.1885
24		C		-3.1702		-0.7492		-0.5856		C.ar		1		UNL1		0.1346
25		C		-1.7602		-0.7371		-0.7519		C.ar		1		UNL1		-0.2297
26		N		2.4813		0.3575		0.0362		N.ar		1		UNL1		-0.5315
27		C		6.8507		0.4189		-0.1469		C.ar		1		UNL1		-0.2047
28		C		7.7607		-0.6249		-0.1186		C.ar		1		UNL1		-0.1401
29		H		5.5703		-3.2182		0.1322		H		1		UNL1		0.1611
30		H		3.9488		-1.3524		0.0812		H		1		UNL1		0.1967
31		H		5.0945		2.1918		-0.1869		H		1		UNL1		0.3539
32		H		-0.4503		2.0568		0.0304		H		1		UNL1		0.1822
33		H		-0.7966		-0.0244		2.4347		H		1		UNL1		0.1559
34		H		-3.2583		-0.0178		2.7751		H		1		UNL1		0.1503
35		H		-5.5573		-0.2844		1.8549		H		1		UNL1		0.1588
36		H		-6.0913		-1.2290		-2.3049		H		1		UNL1		0.1610
37		H		-3.6409		-1.2261		-2.6470		H		1		UNL1		0.1486
38		H		-1.3202		-0.9468		-1.7222		H		1		UNL1		0.1539
39		H		7.2115		1.4418		-0.2254		H		1		UNL1		0.1404
40		H		8.8248		-0.4202		-0.1745		H		1		UNL1		0.1603
@<TRIPOS>BOND
1		37		23		1
2		36		22		1
3		38		25		1
4		23		22		ar
5		23		24		ar
6		22		20		ar
7		25		24		ar
8		25		15		ar
9		24		18		ar
10		39		27		1
11		20		21		1
12		20		19		ar
13		31		7		1
14		11		10		1
15		40		28		1
16		27		28		ar
17		27		6		ar
18		9		10		ar
19		9		8		ar
20		28		3		ar
21		7		6		1
22		7		8		1
23		10		12		ar
24		6		5		ar
25		8		26		ar
26		3		2		1
27		3		4		ar
28		12		32		1
29		12		13		ar
30		2		1		3
31		5		4		ar
32		5		30		1
33		26		13		ar
34		4		29		1
35		13		14		1
36		14		15		1
37		15		16		ar
38		18		19		ar
39		18		17		ar
40		19		35		1
41		16		17		ar
42		16		33		1
43		17		34		1

