@<TRIPOS>MOLECULE
WHQ-2014-SQER-761-58
 48 51 0 0 0
SMALL
MULLIKEN_CHARGES
****
Gaussian 16 #p B3LYP/6-31G* opt
@<TRIPOS>ATOM
1		C		0.7243		5.2917		-0.4435		C.3		1		UNL1		-0.2854
2		N		-0.0957		4.2637		0.1765		N.pl3		1		UNL1		-0.6409
3		C		0.3445		2.9800		0.3396		C.ar		1		UNL1		0.5186
4		N		1.6229		2.7397		0.0229		N.ar		1		UNL1		-0.6094
5		C		2.0485		1.4804		0.2116		C.ar		1		UNL1		0.7118
6		N		3.3895		1.3063		-0.0795		N.pl3		1		UNL1		-0.7771
7		C		4.2181		0.1873		-0.0457		C.ar		1		UNL1		0.3839
8		C		5.5659		0.3842		-0.4132		C.ar		1		UNL1		-0.2068
9		C		6.4674		-0.6666		-0.4113		C.ar		1		UNL1		-0.1413
10		C		6.0483		-1.9567		-0.0397		C.ar		1		UNL1		0.1294
11		C		6.9742		-3.0470		-0.0348		C.1		1		UNL1		0.2249
12		N		7.7297		-3.9331		-0.0314		N.1		1		UNL1		-0.4894
13		C		4.7060		-2.1534		0.3260		C.ar		1		UNL1		-0.1552
14		C		3.7963		-1.1039		0.3266		C.ar		1		UNL1		-0.1628
15		N		1.3166		0.4455		0.6129		N.ar		1		UNL1		-0.5490
16		C		0.0412		0.7139		0.9018		C.ar		1		UNL1		0.4646
17		O		-0.6109		-0.4146		1.3489		O.3		1		UNL1		-0.5516
18		C		-1.9344		-0.7112		1.1211		C.ar		1		UNL1		0.3137
19		C		-2.6449		-1.1532		2.2667		C.ar		1		UNL1		-0.1707
20		C		-3.9526		-1.5498		2.1690		C.ar		1		UNL1		-0.1939
21		C		-4.6301		-1.5247		0.9214		C.ar		1		UNL1		0.1455
22		C		-5.9887		-1.9192		0.8084		C.ar		1		UNL1		-0.1943
23		C		-6.6354		-1.8995		-0.4059		C.ar		1		UNL1		-0.1322
24		C		-5.9395		-1.4813		-1.5631		C.ar		1		UNL1		-0.1314
25		C		-4.6200		-1.0923		-1.4909		C.ar		1		UNL1		-0.1927
26		C		-3.9230		-1.0988		-0.2531		C.ar		1		UNL1		0.0949
27		C		-2.5536		-0.7105		-0.1154		C.ar		1		UNL1		-0.0204
28		BR		-1.5608		-0.2131		-1.6683		Br		1		UNL1		-0.0985
29		C		-0.5326		1.9797		0.8562		C.ar		1		UNL1		0.0975
30		C		-1.9269		2.3358		1.3023		C.3		1		UNL1		-0.5674
31		H		0.1898		6.2429		-0.3792		H		1		UNL1		0.1510
32		H		1.6742		5.3812		0.0883		H		1		UNL1		0.1818
33		H		0.9463		5.0736		-1.4966		H		1		UNL1		0.1629
34		H		-1.0939		4.4011		0.1554		H		1		UNL1		0.3339
35		H		3.8199		2.1717		-0.3782		H		1		UNL1		0.3410
36		H		5.9021		1.3775		-0.7023		H		1		UNL1		0.1317
37		H		7.5007		-0.4971		-0.6967		H		1		UNL1		0.1537
38		H		4.3731		-3.1459		0.6135		H		1		UNL1		0.1561
39		H		2.7656		-1.2641		0.6084		H		1		UNL1		0.1976
40		H		-2.1117		-1.1651		3.2118		H		1		UNL1		0.1562
41		H		-4.4888		-1.8861		3.0523		H		1		UNL1		0.1438
42		H		-6.5097		-2.2402		1.7072		H		1		UNL1		0.1365
43		H		-7.6754		-2.2044		-0.4785		H		1		UNL1		0.1368
44		H		-6.4501		-1.4667		-2.5220		H		1		UNL1		0.1379
45		H		-4.0962		-0.7749		-2.3849		H		1		UNL1		0.1562
46		H		-2.3212		1.6174		2.0221		H		1		UNL1		0.1813
47		H		-2.6393		2.3784		0.4657		H		1		UNL1		0.1697
48		H		-1.9288		3.3139		1.7990		H		1		UNL1		0.1574
@<TRIPOS>BOND
1		44		24		1
2		45		25		1
3		28		27		1
4		24		25		ar
5		24		23		ar
6		33		1		1
7		25		26		ar
8		36		8		1
9		37		9		1
10		43		23		1
11		1		31		1
12		1		32		1
13		1		2		1
14		8		9		ar
15		8		7		ar
16		9		10		ar
17		23		22		ar
18		35		6		1
19		26		27		ar
20		26		21		ar
21		27		18		ar
22		6		7		1
23		6		5		1
24		7		14		ar
25		10		11		1
26		10		13		ar
27		11		12		3
28		4		5		ar
29		4		3		ar
30		34		2		1
31		2		3		1
32		5		15		ar
33		13		14		ar
34		13		38		1
35		14		39		1
36		3		29		ar
37		47		30		1
38		15		16		ar
39		22		21		ar
40		22		42		1
41		29		16		ar
42		29		30		1
43		16		17		1
44		21		20		ar
45		18		17		1
46		18		19		ar
47		30		48		1
48		30		46		1
49		20		19		ar
50		20		41		1
51		19		40		1

