@<TRIPOS>MOLECULE
WHQ-2014-MCC-5468-3-1t
 46 48 0 0 0
SMALL
MULLIKEN_CHARGES
****
Gaussian 16 #p B3LYP/6-31G* opt
@<TRIPOS>ATOM
1		C		-7.6808		0.8946		0.4286		C.3		1		UNL1		-0.2218
2		O		-6.8408		0.0197		1.1697		O.3		1		UNL1		-0.5014
3		C		-5.7333		-0.4818		0.5611		C.ar		1		UNL1		0.3812
4		C		-4.9263		-1.3148		1.3567		C.ar		1		UNL1		-0.1683
5		C		-3.7694		-1.8724		0.8377		C.ar		1		UNL1		-0.1650
6		C		-3.3788		-1.6255		-0.4910		C.ar		1		UNL1		0.1409
7		C		-2.1407		-2.2567		-1.0848		C.3		1		UNL1		-0.5487
8		S		-0.5462		-2.0436		-0.1613		S.3		1		UNL1		0.2005
9		C		-0.1380		-0.3254		-0.3575		C.ar		1		UNL1		0.3274
10		N		1.0964		-0.0032		-0.0984		N.ar		1		UNL1		-0.5072
11		C		1.4388		1.3167		-0.2009		C.ar		1		UNL1		0.2436
12		C		2.9060		1.6391		0.1511		C.3		1		UNL1		-0.3352
13		C		2.9758		2.2694		1.4847		C.1		1		UNL1		0.3757
14		N		3.0253		2.8099		2.5107		N.1		1		UNL1		-0.4703
15		C		3.8639		0.4658		0.0108		C.ar		1		UNL1		0.0983
16		C		4.7228		0.3793		-1.0891		C.ar		1		UNL1		-0.1802
17		C		5.6001		-0.6924		-1.2554		C.ar		1		UNL1		-0.1972
18		C		5.6101		-1.6900		-0.2885		C.ar		1		UNL1		0.3949
19		F		6.4517		-2.7317		-0.4273		F		1		UNL1		-0.2922
20		C		4.7805		-1.6492		0.8262		C.ar		1		UNL1		-0.2787
21		C		3.9189		-0.5678		0.9501		C.ar		1		UNL1		0.3967
22		F		3.1212		-0.5132		2.0290		F		1		UNL1		-0.2802
23		C		0.5879		2.3203		-0.5968		C.ar		1		UNL1		0.0733
24		C		0.9645		3.7738		-0.7138		C.3		1		UNL1		-0.5561
25		C		-0.7926		1.9659		-0.9045		C.ar		1		UNL1		0.5746
26		O		-1.6879		2.7191		-1.2664		O.2		1		UNL1		-0.5235
27		N		-1.0700		0.5871		-0.7376		N.ar		1		UNL1		-0.6520
28		C		-4.1925		-0.7993		-1.2723		C.ar		1		UNL1		-0.2118
29		C		-5.3616		-0.2243		-0.7617		C.ar		1		UNL1		-0.1818
30		H		-7.1391		1.7932		0.1070		H		1		UNL1		0.1626
31		H		-8.1076		0.3933		-0.4497		H		1		UNL1		0.1550
32		H		-8.4855		1.1804		1.1077		H		1		UNL1		0.1768
33		H		-5.2296		-1.5009		2.3821		H		1		UNL1		0.1515
34		H		-3.1497		-2.5010		1.4717		H		1		UNL1		0.1505
35		H		-2.2269		-3.3495		-1.1069		H		1		UNL1		0.2081
36		H		-1.9901		-1.9318		-2.1188		H		1		UNL1		0.1946
37		H		3.2420		2.4119		-0.5514		H		1		UNL1		0.2010
38		H		4.7054		1.1686		-1.8361		H		1		UNL1		0.1446
39		H		6.2663		-0.7585		-2.1082		H		1		UNL1		0.1522
40		H		4.7997		-2.4321		1.5748		H		1		UNL1		0.1676
41		H		1.7478		3.9353		-1.4667		H		1		UNL1		0.1569
42		H		0.0853		4.3460		-1.0162		H		1		UNL1		0.2004
43		H		1.3319		4.1777		0.2367		H		1		UNL1		0.1864
44		H		-2.0482		0.3319		-0.8483		H		1		UNL1		0.3691
45		H		-3.9227		-0.5989		-2.3075		H		1		UNL1		0.1421
46		H		-5.9591		0.4166		-1.3991		H		1		UNL1		0.1455
@<TRIPOS>BOND
1		45		28		1
2		36		7		1
3		39		17		1
4		38		16		1
5		41		24		1
6		46		29		1
7		28		29		ar
8		28		6		ar
9		26		25		2
10		17		16		ar
11		17		18		ar
12		35		7		1
13		16		15		ar
14		7		6		1
15		7		8		1
16		42		24		1
17		25		27		ar
18		25		23		ar
19		44		27		1
20		29		3		ar
21		27		9		ar
22		24		23		1
23		24		43		1
24		23		11		ar
25		37		12		1
26		6		5		ar
27		31		1		1
28		19		18		1
29		9		8		1
30		9		10		ar
31		18		20		ar
32		11		10		ar
33		11		12		1
34		15		12		1
35		15		21		ar
36		30		1		1
37		12		13		1
38		1		32		1
39		1		2		1
40		3		2		1
41		3		4		ar
42		20		21		ar
43		20		40		1
44		5		4		ar
45		5		34		1
46		21		22		1
47		4		33		1
48		13		14		3

