@<TRIPOS>MOLECULE
WHQ-2015-BMC-624-3-3k
 44 46 0 0 0
SMALL
MULLIKEN_CHARGES
****
Gaussian 16 #p B3LYP/6-31G* opt
@<TRIPOS>ATOM
1		C		3.2084		4.0808		1.7195		C.3		1		UNL1		-0.5143
2		C		2.2273		3.3168		0.8730		C.ar		1		UNL1		0.3449
3		C		1.0157		3.8622		0.4779		C.ar		1		UNL1		-0.2555
4		C		0.1941		3.0386		-0.3080		C.ar		1		UNL1		0.6165
5		O		-0.9811		3.5579		-0.7230		O.3		1		UNL1		-0.4898
6		C		-1.8395		2.7161		-1.4726		C.3		1		UNL1		-0.1359
7		C		-2.4903		1.6361		-0.5884		C.2		1		UNL1		0.6171
8		O		-2.5093		1.7166		0.6256		O.2		1		UNL1		-0.4802
9		N		-3.0703		0.6303		-1.3279		N.am		1		UNL1		-0.7246
10		C		-3.8282		-0.4739		-0.8827		C.ar		1		UNL1		0.3585
11		C		-4.3382		-1.3441		-1.8588		C.ar		1		UNL1		-0.1934
12		C		-5.0922		-2.4513		-1.4834		C.ar		1		UNL1		-0.1320
13		C		-5.3539		-2.7144		-0.1385		C.ar		1		UNL1		-0.1273
14		C		-4.8388		-1.8386		0.8152		C.ar		1		UNL1		-0.0812
15		CL		-5.1543		-2.1496		2.5172		Cl		1		UNL1		-0.0161
16		C		-4.0788		-0.7216		0.4750		C.ar		1		UNL1		-0.1613
17		N		0.5304		1.8122		-0.6710		N.ar		1		UNL1		-0.5966
18		C		1.7318		1.3788		-0.2219		C.ar		1		UNL1		0.7088
19		N		2.0183		0.0879		-0.6190		N.pl3		1		UNL1		-0.7719
20		C		3.1175		-0.7416		-0.3963		C.ar		1		UNL1		0.3839
21		C		4.2640		-0.3650		0.3277		C.ar		1		UNL1		-0.1586
22		C		5.3081		-1.2678		0.4855		C.ar		1		UNL1		-0.1538
23		C		5.2451		-2.5585		-0.0652		C.ar		1		UNL1		0.1311
24		C		6.3288		-3.4773		0.1033		C.1		1		UNL1		0.2268
25		N		7.2103		-4.2258		0.2382		N.1		1		UNL1		-0.4855
26		C		4.0977		-2.9334		-0.7866		C.ar		1		UNL1		-0.1403
27		C		3.0538		-2.0379		-0.9475		C.ar		1		UNL1		-0.2055
28		N		2.5957		2.0638		0.5230		N.ar		1		UNL1		-0.5448
29		H		2.8456		5.0847		1.9550		H		1		UNL1		0.1604
30		H		3.3942		3.5431		2.6561		H		1		UNL1		0.1817
31		H		4.1698		4.1634		1.2003		H		1		UNL1		0.1778
32		H		0.7003		4.8602		0.7542		H		1		UNL1		0.1528
33		H		-2.6180		3.3816		-1.8587		H		1		UNL1		0.1909
34		H		-1.3030		2.2619		-2.3130		H		1		UNL1		0.1699
35		H		-2.9444		0.6793		-2.3309		H		1		UNL1		0.3329
36		H		-4.1449		-1.1507		-2.9118		H		1		UNL1		0.1270
37		H		-5.4823		-3.1179		-2.2472		H		1		UNL1		0.1441
38		H		-5.9406		-3.5743		0.1640		H		1		UNL1		0.1560
39		H		-3.6875		-0.0578		1.2318		H		1		UNL1		0.2108
40		H		1.2616		-0.3167		-1.1546		H		1		UNL1		0.3416
41		H		4.3165		0.6256		0.7553		H		1		UNL1		0.1876
42		H		6.1895		-0.9706		1.0451		H		1		UNL1		0.1573
43		H		4.0327		-3.9275		-1.2168		H		1		UNL1		0.1568
44		H		2.1710		-2.3401		-1.5065		H		1		UNL1		0.1334
@<TRIPOS>BOND
1		36		11		1
2		35		9		1
3		34		6		1
4		37		12		1
5		11		12		ar
6		11		10		ar
7		33		6		1
8		44		27		1
9		12		13		ar
10		6		5		1
11		6		7		1
12		9		10		1
13		9		7		1
14		43		26		1
15		40		19		1
16		27		26		ar
17		27		20		ar
18		10		16		ar
19		26		23		ar
20		5		4		1
21		17		4		ar
22		17		18		ar
23		19		20		1
24		19		18		1
25		7		8		2
26		20		21		ar
27		4		3		ar
28		18		28		ar
29		13		38		1
30		13		14		ar
31		23		24		1
32		23		22		ar
33		24		25		3
34		21		22		ar
35		21		41		1
36		16		14		ar
37		16		39		1
38		3		32		1
39		3		2		ar
40		22		42		1
41		28		2		ar
42		14		15		1
43		2		1		1
44		31		1		1
45		1		29		1
46		1		30		1

