@<TRIPOS>MOLECULE
WHQ-2013-BMC-6477-3-7a
 44 46 0 0 0
SMALL
MULLIKEN_CHARGES
****
Gaussian 16 #p B3LYP/6-31G* opt
@<TRIPOS>ATOM
1		C		7.9415		-1.5247		-0.6296		C.3		1		UNL1		-0.2181
2		O		7.2440		-1.0020		0.4912		O.3		1		UNL1		-0.5031
3		C		5.9202		-0.7122		0.3525		C.ar		1		UNL1		0.3795
4		C		5.1816		-0.8961		-0.8227		C.ar		1		UNL1		-0.1939
5		C		3.8255		-0.5636		-0.8421		C.ar		1		UNL1		-0.1736
6		C		3.1812		-0.0531		0.2880		C.ar		1		UNL1		0.1384
7		C		1.7192		0.2982		0.2535		C.3		1		UNL1		-0.4921
8		S		1.5344		2.0911		-0.2081		S.3		1		UNL1		0.1558
9		C		-0.2276		2.2763		-0.1174		C.ar		1		UNL1		0.3230
10		N		-1.0148		1.2717		0.1284		N.ar		1		UNL1		-0.5189
11		C		-2.3714		1.5264		0.2076		C.ar		1		UNL1		0.1477
12		C		-3.1950		0.3162		0.5966		C.2		1		UNL1		0.3615
13		O		-4.0508		0.4214		1.4633		O.2		1		UNL1		-0.4520
14		C		-2.9465		-0.9994		-0.0779		C.ar		1		UNL1		0.0847
15		C		-2.2460		-1.1238		-1.2862		C.ar		1		UNL1		-0.1490
16		C		-2.1142		-2.3738		-1.8896		C.ar		1		UNL1		-0.1400
17		C		-2.6638		-3.5103		-1.2956		C.ar		1		UNL1		-0.1169
18		C		-3.3604		-3.3756		-0.0927		C.ar		1		UNL1		-0.0729
19		CL		-4.0590		-4.8036		0.6595		Cl		1		UNL1		-0.0142
20		C		-3.5160		-2.1366		0.5152		C.ar		1		UNL1		-0.1557
21		C		-2.9484		2.7585		0.0192		C.ar		1		UNL1		0.0572
22		C		-4.4124		3.0846		0.0958		C.3		1		UNL1		-0.5056
23		C		-2.0670		3.8855		-0.2904		C.ar		1		UNL1		0.5814
24		O		-2.4108		5.0405		-0.4985		O.2		1		UNL1		-0.5100
25		N		-0.6988		3.5404		-0.3271		N.ar		1		UNL1		-0.6495
26		C		3.9391		0.1272		1.4571		C.ar		1		UNL1		-0.1667
27		C		5.2872		-0.1974		1.4950		C.ar		1		UNL1		-0.1707
28		H		7.9337		-0.8216		-1.4728		H		1		UNL1		0.1550
29		H		8.9694		-1.6773		-0.2966		H		1		UNL1		0.1745
30		H		7.5194		-2.4845		-0.9551		H		1		UNL1		0.1546
31		H		5.6445		-1.2951		-1.7178		H		1		UNL1		0.1367
32		H		3.2611		-0.7111		-1.7601		H		1		UNL1		0.1333
33		H		1.1678		-0.2873		-0.4840		H		1		UNL1		0.2031
34		H		1.2349		0.1668		1.2230		H		1		UNL1		0.2077
35		H		-1.8095		-0.2494		-1.7536		H		1		UNL1		0.1514
36		H		-1.5793		-2.4688		-2.8303		H		1		UNL1		0.1447
37		H		-2.5586		-4.4872		-1.7555		H		1		UNL1		0.1611
38		H		-4.0725		-2.0285		1.4389		H		1		UNL1		0.1850
39		H		-5.0397		2.1941		0.0755		H		1		UNL1		0.1697
40		H		-4.6326		3.6257		1.0245		H		1		UNL1		0.1813
41		H		-4.6818		3.7541		-0.7272		H		1		UNL1		0.1741
42		H		-0.0661		4.3125		-0.5134		H		1		UNL1		0.3567
43		H		3.4618		0.5245		2.3498		H		1		UNL1		0.1391
44		H		5.8747		-0.0654		2.3980		H		1		UNL1		0.1456
@<TRIPOS>BOND
1		36		16		1
2		16		17		ar
3		16		15		ar
4		32		5		1
5		37		17		1
6		35		15		1
7		31		4		1
8		28		1		1
9		17		18		ar
10		15		14		ar
11		30		1		1
12		5		4		ar
13		5		6		ar
14		4		3		ar
15		41		22		1
16		1		29		1
17		1		2		1
18		42		25		1
19		24		23		2
20		33		7		1
21		25		23		ar
22		25		9		ar
23		23		21		ar
24		8		9		1
25		8		7		1
26		9		10		ar
27		18		20		ar
28		18		19		1
29		14		20		ar
30		14		12		1
31		21		22		1
32		21		11		ar
33		39		22		1
34		22		40		1
35		10		11		ar
36		11		12		1
37		7		6		1
38		7		34		1
39		6		26		ar
40		3		2		1
41		3		27		ar
42		20		38		1
43		12		13		2
44		26		27		ar
45		26		43		1
46		27		44		1

