@<TRIPOS>MOLECULE
WHQ-2013-BMC-6477-3-7p
 44 46 0 0 0
SMALL
MULLIKEN_CHARGES
****
Gaussian 16 #p B3LYP/6-31G* opt
@<TRIPOS>ATOM
1		C		-5.5174		-2.1109		2.4971		C.3		1		UNL1		-0.2178
2		O		-5.7621		-1.5985		1.1958		O.3		1		UNL1		-0.5046
3		C		-4.6962		-1.1895		0.4513		C.ar		1		UNL1		0.3785
4		C		-5.0021		-0.6862		-0.8232		C.ar		1		UNL1		-0.1702
5		C		-3.9863		-0.2457		-1.6585		C.ar		1		UNL1		-0.1765
6		C		-2.6413		-0.2913		-1.2550		C.ar		1		UNL1		0.1827
7		C		-1.5462		0.1825		-2.1675		C.3		1		UNL1		-0.5317
8		S		-1.2437		2.0231		-2.1354		S.3		1		UNL1		0.1513
9		C		-0.0741		2.1717		-0.8091		C.ar		1		UNL1		0.3406
10		N		0.5288		1.1490		-0.2800		N.ar		1		UNL1		-0.5216
11		C		1.4257		1.3904		0.7437		C.ar		1		UNL1		0.1533
12		C		1.9953		0.1337		1.3662		C.2		1		UNL1		0.3624
13		O		2.0453		0.0311		2.5831		O.2		1		UNL1		-0.4502
14		C		2.4883		-0.9817		0.4897		C.ar		1		UNL1		0.0758
15		C		2.7502		-0.8148		-0.8779		C.ar		1		UNL1		-0.2306
16		C		3.2682		-1.8881		-1.5918		C.ar		1		UNL1		0.3885
17		F		3.5263		-1.7323		-2.9046		F		1		UNL1		-0.2920
18		C		3.5290		-3.1219		-1.0071		C.ar		1		UNL1		-0.2638
19		C		3.2588		-3.2524		0.3523		C.ar		1		UNL1		0.3945
20		F		3.5051		-4.4374		0.9416		F		1		UNL1		-0.2903
21		C		2.7536		-2.2101		1.1133		C.ar		1		UNL1		-0.2336
22		C		1.7512		2.6365		1.2207		C.ar		1		UNL1		0.0563
23		C		2.7191		2.9513		2.3249		C.3		1		UNL1		-0.5054
24		C		1.0963		3.7933		0.6076		C.ar		1		UNL1		0.5840
25		O		1.2708		4.9668		0.9028		O.2		1		UNL1		-0.5077
26		N		0.1737		3.4507		-0.4043		N.ar		1		UNL1		-0.6507
27		C		-2.3509		-0.7970		0.0153		C.ar		1		UNL1		-0.1874
28		C		-3.3615		-1.2454		0.8690		C.ar		1		UNL1		-0.1940
29		H		-4.8918		-3.0125		2.4644		H		1		UNL1		0.1545
30		H		-5.0382		-1.3624		3.1415		H		1		UNL1		0.1560
31		H		-6.4964		-2.3661		2.9064		H		1		UNL1		0.1725
32		H		-6.0420		-0.6556		-1.1330		H		1		UNL1		0.1421
33		H		-4.2404		0.1404		-2.6435		H		1		UNL1		0.1281
34		H		-1.7820		-0.0056		-3.2188		H		1		UNL1		0.1932
35		H		-0.5843		-0.2772		-1.9356		H		1		UNL1		0.2229
36		H		2.5571		0.1194		-1.3882		H		1		UNL1		0.1668
37		H		3.9275		-3.9472		-1.5853		H		1		UNL1		0.1711
38		H		2.5705		-2.3331		2.1740		H		1		UNL1		0.1795
39		H		3.3209		3.8216		2.0455		H		1		UNL1		0.1760
40		H		3.3673		2.1090		2.5650		H		1		UNL1		0.1686
41		H		2.1772		3.2248		3.2388		H		1		UNL1		0.1818
42		H		-0.3224		4.2346		-0.8177		H		1		UNL1		0.3591
43		H		-1.3178		-0.8391		0.3468		H		1		UNL1		0.1502
44		H		-3.0969		-1.6339		1.8456		H		1		UNL1		0.1380
@<TRIPOS>BOND
1		34		7		1
2		17		16		1
3		33		5		1
4		7		8		1
5		7		35		1
6		7		6		1
7		8		9		1
8		5		6		ar
9		5		4		ar
10		16		18		ar
11		16		15		ar
12		37		18		1
13		36		15		1
14		6		27		ar
15		32		4		1
16		18		19		ar
17		15		14		ar
18		4		3		ar
19		42		26		1
20		9		26		ar
21		9		10		ar
22		26		24		ar
23		10		11		ar
24		27		43		1
25		27		28		ar
26		19		20		1
27		19		21		ar
28		3		28		ar
29		3		2		1
30		14		21		ar
31		14		12		1
32		24		25		2
33		24		22		ar
34		11		22		ar
35		11		12		1
36		28		44		1
37		21		38		1
38		2		1		1
39		22		23		1
40		12		13		2
41		39		23		1
42		23		40		1
43		23		41		1
44		29		1		1
45		1		31		1
46		1		30		1

