@<TRIPOS>MOLECULE
WHQ-2014-MCC-5468-3-1m
 52 54 0 0 0
SMALL
MULLIKEN_CHARGES
****
Gaussian 16 #p B3LYP/6-31G* opt
@<TRIPOS>ATOM
1		C		8.9278		-0.3664		0.6835		C.3		1		UNL1		-0.2172
2		O		8.0368		-0.6959		-0.3709		O.3		1		UNL1		-0.5044
3		C		6.7008		-0.5139		-0.1696		C.ar		1		UNL1		0.3786
4		C		5.8703		-0.8627		-1.2459		C.ar		1		UNL1		-0.1710
5		C		4.4947		-0.7170		-1.1389		C.ar		1		UNL1		-0.1669
6		C		3.9055		-0.2249		0.0377		C.ar		1		UNL1		0.1399
7		C		2.4137		-0.0724		0.1505		C.3		1		UNL1		-0.4969
8		S		1.9256		1.6003		-0.5098		S.3		1		UNL1		0.1538
9		C		0.1769		1.5634		-0.2343		C.ar		1		UNL1		0.3222
10		N		-0.3996		0.5693		0.3714		N.ar		1		UNL1		-0.5106
11		C		-1.7579		0.6213		0.5601		C.ar		1		UNL1		0.2494
12		C		-2.3137		-0.6139		1.3013		C.3		1		UNL1		-0.3530
13		C		-1.2268		-1.4677		1.8194		C.1		1		UNL1		0.3989
14		N		-0.4383		-2.1824		2.2819		N.1		1		UNL1		-0.4847
15		C		-3.3391		-1.4813		0.5532		C.ar		1		UNL1		0.1976
16		C		-4.5548		-1.7673		1.1924		C.ar		1		UNL1		-0.1772
17		C		-5.5296		-2.5663		0.6007		C.ar		1		UNL1		-0.1243
18		C		-5.3011		-3.1081		-0.6635		C.ar		1		UNL1		-0.1215
19		C		-4.0979		-2.8536		-1.3175		C.ar		1		UNL1		-0.1252
20		C		-3.1274		-2.0544		-0.7101		C.ar		1		UNL1		-0.1281
21		CL		-1.6228		-1.8141		-1.5822		Cl		1		UNL1		0.0072
22		C		-2.5575		1.6793		0.1905		C.ar		1		UNL1		0.0657
23		C		-4.0486		1.7895		0.4692		C.3		1		UNL1		-0.1519
24		C		-4.3730		3.0048		1.3636		C.3		1		UNL1		-0.4553
25		C		-4.8794		1.8113		-0.8304		C.3		1		UNL1		-0.4539
26		C		-1.9193		2.7933		-0.5119		C.ar		1		UNL1		0.5856
27		O		-2.4582		3.8066		-0.9454		O.2		1		UNL1		-0.5247
28		N		-0.5273		2.6380		-0.6860		N.ar		1		UNL1		-0.6476
29		C		4.7455		0.1211		1.0996		C.ar		1		UNL1		-0.1725
30		C		6.1319		-0.0196		1.0103		C.ar		1		UNL1		-0.1942
31		H		8.8665		0.6981		0.9458		H		1		UNL1		0.1539
32		H		9.9287		-0.5882		0.3092		H		1		UNL1		0.1723
33		H		8.7335		-0.9706		1.5795		H		1		UNL1		0.1549
34		H		6.3288		-1.2488		-2.1508		H		1		UNL1		0.1427
35		H		3.8628		-0.9941		-1.9794		H		1		UNL1		0.1370
36		H		2.0618		-0.1304		1.1813		H		1		UNL1		0.2206
37		H		1.8716		-0.8185		-0.4331		H		1		UNL1		0.2126
38		H		-2.8351		-0.2388		2.1912		H		1		UNL1		0.2069
39		H		-4.7345		-1.3498		2.1801		H		1		UNL1		0.1445
40		H		-6.4593		-2.7631		1.1258		H		1		UNL1		0.1453
41		H		-6.0509		-3.7315		-1.1417		H		1		UNL1		0.1478
42		H		-3.8972		-3.2748		-2.2967		H		1		UNL1		0.1620
43		H		-4.3517		0.8962		1.0221		H		1		UNL1		0.1265
44		H		-4.1216		3.9393		0.8572		H		1		UNL1		0.1872
45		H		-3.8175		2.9625		2.3082		H		1		UNL1		0.1342
46		H		-5.4431		3.0159		1.6022		H		1		UNL1		0.1391
47		H		-5.9485		1.8459		-0.5900		H		1		UNL1		0.1376
48		H		-4.6967		0.9125		-1.4297		H		1		UNL1		0.1451
49		H		-4.6310		2.6886		-1.4325		H		1		UNL1		0.1835
50		H		-0.0713		3.4020		-1.1753		H		1		UNL1		0.3551
51		H		4.3133		0.5032		2.0213		H		1		UNL1		0.1375
52		H		6.7497		0.2524		1.8583		H		1		UNL1		0.1357
@<TRIPOS>BOND
1		42		19		1
2		34		4		1
3		35		5		1
4		21		20		1
5		49		25		1
6		48		25		1
7		19		20		ar
8		19		18		ar
9		4		5		ar
10		4		3		ar
11		50		28		1
12		41		18		1
13		5		6		ar
14		27		26		2
15		25		47		1
16		25		23		1
17		20		15		ar
18		28		26		ar
19		28		9		ar
20		18		17		ar
21		26		22		ar
22		8		9		1
23		8		7		1
24		37		7		1
25		2		3		1
26		2		1		1
27		9		10		ar
28		3		30		ar
29		6		7		1
30		6		29		ar
31		7		36		1
32		22		23		1
33		22		11		ar
34		32		1		1
35		10		11		ar
36		23		43		1
37		23		24		1
38		15		16		ar
39		15		12		1
40		11		12		1
41		17		40		1
42		17		16		ar
43		1		31		1
44		1		33		1
45		44		24		1
46		30		29		ar
47		30		52		1
48		29		51		1
49		16		39		1
50		12		13		1
51		12		38		1
52		24		46		1
53		24		45		1
54		13		14		3

