@<TRIPOS>MOLECULE
WHQ-2014-SQER-761-46
 46 49 0 0 0
SMALL
MULLIKEN_CHARGES
****
Gaussian 16 #p B3LYP/6-31G* opt
@<TRIPOS>ATOM
1		C		0.8574		4.6289		-0.1136		C.3		1		UNL1		-0.5197
2		C		0.0606		3.3548		-0.0969		C.ar		1		UNL1		0.0838
3		C		-1.3230		3.3089		-0.0232		C.ar		1		UNL1		0.0129
4		N		-2.0542		2.1807		-0.0102		N.ar		1		UNL1		-0.4878
5		C		-1.3540		1.0480		-0.0742		C.ar		1		UNL1		0.6965
6		N		-1.9895		-0.1782		-0.0680		N.pl3		1		UNL1		-0.7700
7		C		-3.3350		-0.5363		-0.0018		C.ar		1		UNL1		0.3830
8		C		-4.3984		0.3828		0.0752		C.ar		1		UNL1		-0.1603
9		C		-5.7070		-0.0794		0.1366		C.ar		1		UNL1		-0.1537
10		C		-5.9959		-1.4541		0.1235		C.ar		1		UNL1		0.1304
11		C		-7.3485		-1.9159		0.1871		C.1		1		UNL1		0.2263
12		N		-8.4488		-2.2932		0.2388		N.1		1		UNL1		-0.4865
13		C		-4.9319		-2.3706		0.0465		C.ar		1		UNL1		-0.1408
14		C		-3.6253		-1.9164		-0.0149		C.ar		1		UNL1		-0.2065
15		N		-0.0090		0.9439		-0.1480		N.ar		1		UNL1		-0.5599
16		C		0.6648		2.0782		-0.1590		C.ar		1		UNL1		0.5267
17		O		2.0196		2.0561		-0.2217		O.3		1		UNL1		-0.5685
18		C		2.6916		0.8358		-0.3936		C.ar		1		UNL1		0.2741
19		C		2.6679		0.2515		-1.6808		C.ar		1		UNL1		-0.1342
20		C		3.3858		-0.8917		-1.9193		C.ar		1		UNL1		-0.2148
21		C		4.1542		-1.4905		-0.8845		C.ar		1		UNL1		0.1577
22		C		4.9043		-2.6744		-1.1097		C.ar		1		UNL1		-0.1978
23		C		5.6468		-3.2468		-0.1015		C.ar		1		UNL1		-0.1336
24		C		5.6679		-2.6516		1.1805		C.ar		1		UNL1		-0.1319
25		C		4.9517		-1.5006		1.4303		C.ar		1		UNL1		-0.1979
26		C		4.1737		-0.8819		0.4137		C.ar		1		UNL1		0.0552
27		C		3.4188		0.3154		0.6561		C.ar		1		UNL1		0.1106
28		C		3.4278		0.9753		2.0127		C.3		1		UNL1		-0.5417
29		H		1.5415		4.6881		0.7414		H		1		UNL1		0.1712
30		H		0.1935		5.4984		-0.0785		H		1		UNL1		0.1575
31		H		1.4740		4.7050		-1.0168		H		1		UNL1		0.1728
32		H		-1.8908		4.2373		0.0275		H		1		UNL1		0.1473
33		H		-1.3276		-0.9421		-0.1195		H		1		UNL1		0.3485
34		H		-4.1830		1.4415		0.0858		H		1		UNL1		0.1895
35		H		-6.5222		0.6349		0.1959		H		1		UNL1		0.1569
36		H		-5.1381		-3.4359		0.0355		H		1		UNL1		0.1566
37		H		-2.8107		-2.6347		-0.0740		H		1		UNL1		0.1363
38		H		2.0815		0.7252		-2.4611		H		1		UNL1		0.1404
39		H		3.3775		-1.3504		-2.9047		H		1		UNL1		0.1363
40		H		4.8809		-3.1233		-2.1000		H		1		UNL1		0.1323
41		H		6.2160		-4.1534		-0.2873		H		1		UNL1		0.1330
42		H		6.2540		-3.1057		1.9750		H		1		UNL1		0.1326
43		H		4.9806		-1.0603		2.4214		H		1		UNL1		0.1321
44		H		3.0144		0.3106		2.7814		H		1		UNL1		0.1677
45		H		2.8383		1.8929		2.0070		H		1		UNL1		0.1709
46		H		4.4476		1.2339		2.3224		H		1		UNL1		0.1665
@<TRIPOS>BOND
1		39		20		1
2		38		19		1
3		40		22		1
4		20		19		ar
5		20		21		ar
6		19		18		ar
7		22		21		ar
8		22		23		ar
9		31		1		1
10		21		26		ar
11		18		17		1
12		18		27		ar
13		41		23		1
14		17		16		1
15		16		15		ar
16		16		2		ar
17		15		5		ar
18		33		6		1
19		1		2		1
20		1		30		1
21		1		29		1
22		23		24		ar
23		2		3		ar
24		5		6		1
25		5		4		ar
26		37		14		1
27		6		7		1
28		3		4		ar
29		3		32		1
30		14		7		ar
31		14		13		ar
32		7		8		ar
33		36		13		1
34		13		10		ar
35		8		34		1
36		8		9		ar
37		10		9		ar
38		10		11		1
39		9		35		1
40		11		12		3
41		26		27		ar
42		26		25		ar
43		27		28		1
44		24		25		ar
45		24		42		1
46		25		43		1
47		45		28		1
48		28		46		1
49		28		44		1

