@<TRIPOS>MOLECULE
WHQ-2014-SQER-761-29
 40 43 0 0 0
SMALL
MULLIKEN_CHARGES
****
Gaussian 16 #p B3LYP/6-31G* opt
@<TRIPOS>ATOM
1		N		-8.8351		-3.6307		0.1682		N.1		1		UNL1		-0.4842
2		C		-7.8606		-2.9946		0.1374		C.1		1		UNL1		0.2277
3		C		-6.6619		-2.2141		0.0993		C.ar		1		UNL1		0.1316
4		C		-6.7202		-0.8111		0.1296		C.ar		1		UNL1		-0.1534
5		C		-5.5645		-0.0409		0.0928		C.ar		1		UNL1		-0.1591
6		C		-4.3079		-0.6703		0.0239		C.ar		1		UNL1		0.3818
7		N		-3.0880		0.0073		-0.0192		N.pl3		1		UNL1		-0.7673
8		C		-2.7696		1.3479		0.0008		C.ar		1		UNL1		0.6995
9		N		-3.7303		2.2737		0.0727		N.ar		1		UNL1		-0.4881
10		C		-3.3005		3.5470		0.0886		C.ar		1		UNL1		0.0700
11		C		-1.9671		3.9100		0.0348		C.ar		1		UNL1		-0.2161
12		C		-1.0601		2.8387		-0.0390		C.ar		1		UNL1		0.5711
13		O		0.2573		3.1538		-0.0789		O.3		1		UNL1		-0.5620
14		C		1.2170		2.1532		-0.2499		C.ar		1		UNL1		0.3575
15		C		1.3059		1.4595		-1.4796		C.ar		1		UNL1		-0.1384
16		C		2.3196		0.5512		-1.6693		C.ar		1		UNL1		-0.2061
17		C		3.2819		0.3024		-0.6523		C.ar		1		UNL1		0.1455
18		C		4.3370		-0.6311		-0.8299		C.ar		1		UNL1		-0.2208
19		C		5.2461		-0.8360		0.1799		C.ar		1		UNL1		0.0790
20		BR		6.6662		-2.0941		-0.0594		Br		1		UNL1		-0.1256
21		C		5.1626		-0.1360		1.4057		C.ar		1		UNL1		-0.1521
22		C		4.1478		0.7737		1.5958		C.ar		1		UNL1		-0.1901
23		C		3.1825		1.0201		0.5834		C.ar		1		UNL1		0.1354
24		C		2.1251		1.9512		0.7584		C.ar		1		UNL1		-0.2376
25		N		-1.4370		1.5733		-0.0568		N.ar		1		UNL1		-0.5611
26		C		-4.2491		-2.0785		-0.0063		C.ar		1		UNL1		-0.2059
27		C		-5.4049		-2.8405		0.0307		C.ar		1		UNL1		-0.1405
28		H		-7.6866		-0.3196		0.1828		H		1		UNL1		0.1586
29		H		-5.6162		1.0379		0.1170		H		1		UNL1		0.1904
30		H		-2.2601		-0.5730		-0.0675		H		1		UNL1		0.3492
31		H		-4.0777		4.3063		0.1469		H		1		UNL1		0.1580
32		H		-1.6301		4.9385		0.0476		H		1		UNL1		0.1591
33		H		0.5752		1.6559		-2.2566		H		1		UNL1		0.1484
34		H		2.3989		0.0133		-2.6103		H		1		UNL1		0.1442
35		H		4.4187		-1.1772		-1.7641		H		1		UNL1		0.1555
36		H		5.8973		-0.3225		2.1811		H		1		UNL1		0.1577
37		H		4.0770		1.3161		2.5351		H		1		UNL1		0.1448
38		H		2.0341		2.5092		1.6854		H		1		UNL1		0.1470
39		H		-3.2825		-2.5741		-0.0589		H		1		UNL1		0.1377
40		H		-5.3430		-3.9237		0.0069		H		1		UNL1		0.1585
@<TRIPOS>BOND
1		34		16		1
2		33		15		1
3		35		18		1
4		16		15		ar
5		16		17		ar
6		15		14		ar
7		18		17		ar
8		18		19		ar
9		17		23		ar
10		14		13		1
11		14		24		ar
12		13		12		1
13		30		7		1
14		20		19		1
15		39		26		1
16		25		12		ar
17		25		8		ar
18		12		11		ar
19		7		8		1
20		7		6		1
21		26		6		ar
22		26		27		ar
23		8		9		ar
24		40		27		1
25		6		5		ar
26		27		3		ar
27		11		32		1
28		11		10		ar
29		9		10		ar
30		10		31		1
31		5		29		1
32		5		4		ar
33		3		4		ar
34		3		2		1
35		4		28		1
36		2		1		3
37		19		21		ar
38		23		24		ar
39		23		22		ar
40		24		38		1
41		21		22		ar
42		21		36		1
43		22		37		1

