@<TRIPOS>MOLECULE
WHQ-2014-SQER-761-41
 47 50 0 0 0
SMALL
MULLIKEN_CHARGES
****
Gaussian 16 #p B3LYP/6-31G* opt
@<TRIPOS>ATOM
1		C		-4.1209		-3.5505		1.1049		C.3		1		UNL1		-0.4421
2		C		-4.0073		-2.8669		-0.2701		C.3		1		UNL1		-0.3326
3		C		-3.5300		-1.4382		-0.1850		C.ar		1		UNL1		0.0894
4		C		-4.3458		-0.3068		-0.0836		C.ar		1		UNL1		0.0664
5		CL		-6.0950		-0.4990		-0.0648		Cl		1		UNL1		0.0187
6		N		-3.9205		0.9417		0.0005		N.ar		1		UNL1		-0.4945
7		C		-2.5863		1.1086		-0.0076		C.ar		1		UNL1		0.6954
8		N		-2.1945		2.4242		0.0777		N.pl3		1		UNL1		-0.7712
9		C		-0.9396		3.0371		0.1102		C.ar		1		UNL1		0.3798
10		C		-0.9290		4.4450		0.1775		C.ar		1		UNL1		-0.2041
11		C		0.2642		5.1469		0.2147		C.ar		1		UNL1		-0.1402
12		C		1.4899		4.4582		0.1858		C.ar		1		UNL1		0.1331
13		C		2.7269		5.1769		0.2215		C.1		1		UNL1		0.2289
14		N		3.7320		5.7633		0.2493		N.1		1		UNL1		-0.4805
15		C		1.4788		3.0556		0.1206		C.ar		1		UNL1		-0.1575
16		C		0.2848		2.3455		0.0828		C.ar		1		UNL1		-0.1643
17		N		-1.6766		0.1295		-0.0857		N.ar		1		UNL1		-0.5518
18		C		-2.1615		-1.1030		-0.1678		C.ar		1		UNL1		0.5348
19		O		-1.2916		-2.1458		-0.2227		O.3		1		UNL1		-0.5637
20		C		0.0767		-1.9255		-0.3704		C.ar		1		UNL1		0.3637
21		C		0.5806		-1.3672		-1.5699		C.ar		1		UNL1		-0.1439
22		C		1.9395		-1.2594		-1.7421		C.ar		1		UNL1		-0.2019
23		C		2.8442		-1.7072		-0.7392		C.ar		1		UNL1		0.1421
24		C		4.2472		-1.6128		-0.9009		C.ar		1		UNL1		-0.2151
25		C		5.1039		-2.0638		0.0907		C.ar		1		UNL1		0.1331
26		C		6.5235		-1.9697		-0.0862		C.1		1		UNL1		0.2379
27		N		7.6767		-1.8995		-0.2232		N.1		1		UNL1		-0.4737
28		C		4.5793		-2.6275		1.2899		C.ar		1		UNL1		-0.1417
29		C		3.2214		-2.7285		1.4655		C.ar		1		UNL1		-0.1932
30		C		2.3170		-2.2770		0.4659		C.ar		1		UNL1		0.1392
31		C		0.9102		-2.3731		0.6245		C.ar		1		UNL1		-0.2398
32		H		-4.8360		-3.0269		1.7479		H		1		UNL1		0.1600
33		H		-4.4623		-4.5851		0.9893		H		1		UNL1		0.1533
34		H		-3.1517		-3.5682		1.6143		H		1		UNL1		0.1528
35		H		-4.9792		-2.8898		-0.7714		H		1		UNL1		0.1680
36		H		-3.3092		-3.4310		-0.8968		H		1		UNL1		0.1637
37		H		-2.9930		3.0448		0.1263		H		1		UNL1		0.3542
38		H		-1.8707		4.9884		0.1995		H		1		UNL1		0.1413
39		H		0.2559		6.2308		0.2658		H		1		UNL1		0.1614
40		H		2.4200		2.5154		0.0999		H		1		UNL1		0.1603
41		H		0.2916		1.2668		0.0340		H		1		UNL1		0.1952
42		H		-0.1108		-1.0353		-2.3365		H		1		UNL1		0.1554
43		H		2.3394		-0.8342		-2.6587		H		1		UNL1		0.1537
44		H		4.6524		-1.1842		-1.8128		H		1		UNL1		0.1647
45		H		5.2658		-2.9736		2.0554		H		1		UNL1		0.1632
46		H		2.8216		-3.1590		2.3797		H		1		UNL1		0.1493
47		H		0.4886		-2.8060		1.5263		H		1		UNL1		0.1525
@<TRIPOS>BOND
1		43		22		1
2		42		21		1
3		44		24		1
4		22		21		ar
5		22		23		ar
6		21		20		ar
7		24		23		ar
8		24		25		ar
9		36		2		1
10		35		2		1
11		23		30		ar
12		20		19		1
13		20		31		ar
14		2		3		1
15		2		1		1
16		27		26		3
17		19		18		1
18		3		18		ar
19		3		4		ar
20		18		17		ar
21		26		25		1
22		17		7		ar
23		4		5		1
24		4		6		ar
25		7		6		ar
26		7		8		1
27		41		16		1
28		8		9		1
29		8		37		1
30		16		9		ar
31		16		15		ar
32		25		28		ar
33		40		15		1
34		9		10		ar
35		15		12		ar
36		10		38		1
37		10		11		ar
38		12		11		ar
39		12		13		1
40		11		39		1
41		13		14		3
42		30		31		ar
43		30		29		ar
44		31		47		1
45		33		1		1
46		1		34		1
47		1		32		1
48		28		29		ar
49		28		45		1
50		29		46		1

