@<TRIPOS>MOLECULE
WHQ-2014-SQER-761-17
 40 43 0 0 0
SMALL
MULLIKEN_CHARGES
****
Gaussian 16 #p B3LYP/6-31G* opt
@<TRIPOS>ATOM
1		N		-8.3242		-3.3298		-0.3303		N.1		1		UNL1		-0.4831
2		C		-7.5042		-2.5151		-0.1926		C.1		1		UNL1		0.2287
3		C		-6.4983		-1.5116		-0.0217		C.ar		1		UNL1		0.1324
4		C		-5.1563		-1.7833		-0.3336		C.ar		1		UNL1		-0.1543
5		C		-4.1695		-0.8182		-0.1722		C.ar		1		UNL1		-0.1639
6		C		-4.5137		0.4570		0.3122		C.ar		1		UNL1		0.3809
7		N		-3.6033		1.4970		0.5148		N.pl3		1		UNL1		-0.7561
8		C		-2.2457		1.5971		0.3151		C.ar		1		UNL1		0.6809
9		N		-1.7355		2.7982		0.6659		N.ar		1		UNL1		-0.4778
10		C		-0.4365		2.9522		0.4473		C.ar		1		UNL1		0.0665
11		C		0.3760		1.9508		-0.0963		C.ar		1		UNL1		0.0247
12		BR		2.1844		2.3690		-0.4803		Br		1		UNL1		-0.0838
13		C		-0.2394		0.7199		-0.3691		C.ar		1		UNL1		0.0818
14		S		0.5246		-0.7267		-1.0869		S.3		1		UNL1		0.1970
15		C		2.1050		-0.8956		-0.2583		C.ar		1		UNL1		-0.1102
16		C		2.1893		-0.8956		1.1604		C.ar		1		UNL1		-0.1394
17		C		3.3952		-1.1307		1.7753		C.ar		1		UNL1		-0.1791
18		C		4.5678		-1.4041		1.0195		C.ar		1		UNL1		0.1355
19		C		5.8230		-1.6626		1.6299		C.ar		1		UNL1		-0.1902
20		C		6.9371		-1.9263		0.8644		C.ar		1		UNL1		-0.1327
21		C		6.8458		-1.9433		-0.5491		C.ar		1		UNL1		-0.1348
22		C		5.6426		-1.6975		-1.1715		C.ar		1		UNL1		-0.1874
23		C		4.4747		-1.4234		-0.4100		C.ar		1		UNL1		0.1415
24		C		3.2232		-1.1526		-1.0234		C.ar		1		UNL1		-0.2092
25		N		-1.5543		0.5605		-0.1668		N.ar		1		UNL1		-0.4944
26		C		-5.8607		0.7299		0.6253		C.ar		1		UNL1		-0.2045
27		C		-6.8393		-0.2362		0.4622		C.ar		1		UNL1		-0.1402
28		H		-4.8842		-2.7653		-0.7072		H		1		UNL1		0.1615
29		H		-3.1403		-1.0390		-0.4148		H		1		UNL1		0.2000
30		H		-3.9872		2.3570		0.8862		H		1		UNL1		0.3510
31		H		-0.0050		3.9188		0.6979		H		1		UNL1		0.1771
32		H		1.2979		-0.7114		1.7518		H		1		UNL1		0.1474
33		H		3.4614		-1.1231		2.8607		H		1		UNL1		0.1394
34		H		5.8904		-1.6492		2.7151		H		1		UNL1		0.1353
35		H		7.8925		-2.1227		1.3429		H		1		UNL1		0.1362
36		H		7.7321		-2.1525		-1.1417		H		1		UNL1		0.1365
37		H		5.5699		-1.7100		-2.2563		H		1		UNL1		0.1367
38		H		3.1587		-1.1392		-2.1080		H		1		UNL1		0.1519
39		H		-6.1360		1.7132		0.9998		H		1		UNL1		0.1387
40		H		-7.8721		-0.0109		0.7075		H		1		UNL1		0.1595
@<TRIPOS>BOND
1		37		22		1
2		38		24		1
3		22		21		ar
4		22		23		ar
5		36		21		1
6		14		13		1
7		14		15		1
8		24		23		ar
9		24		15		ar
10		28		4		1
11		21		20		ar
12		12		11		1
13		29		5		1
14		23		18		ar
15		13		25		ar
16		13		11		ar
17		4		5		ar
18		4		3		ar
19		1		2		3
20		15		16		ar
21		2		3		1
22		5		6		ar
23		25		8		ar
24		11		10		ar
25		3		27		ar
26		6		7		1
27		6		26		ar
28		8		7		1
29		8		9		ar
30		10		9		ar
31		10		31		1
32		27		26		ar
33		27		40		1
34		7		30		1
35		26		39		1
36		20		35		1
37		20		19		ar
38		18		19		ar
39		18		17		ar
40		16		32		1
41		16		17		ar
42		19		34		1
43		17		33		1

