@<TRIPOS>MOLECULE
WHQ-2014-SQER-761-48
 49 52 0 0 0
SMALL
MULLIKEN_CHARGES
****
Gaussian 16 #p B3LYP/6-31G* opt
@<TRIPOS>ATOM
1		C		1.5943		-1.1136		1.9649		C.3		1		UNL1		-0.5414
2		C		0.3604		-0.7235		1.1887		C.ar		1		UNL1		0.1106
3		C		-0.8959		-0.8180		1.7861		C.ar		1		UNL1		0.0095
4		N		-2.0663		-0.5571		1.1932		N.ar		1		UNL1		-0.4803
5		C		-1.9721		-0.1853		-0.0872		C.ar		1		UNL1		0.6945
6		N		-3.1056		0.0938		-0.8250		N.pl3		1		UNL1		-0.7685
7		C		-4.4623		0.0739		-0.5054		C.ar		1		UNL1		0.3834
8		C		-4.9760		-0.2690		0.7596		C.ar		1		UNL1		-0.1608
9		C		-6.3484		-0.2564		0.9739		C.ar		1		UNL1		-0.1536
10		C		-7.2431		0.0936		-0.0509		C.ar		1		UNL1		0.1304
11		C		-8.6543		0.1026		0.1843		C.1		1		UNL1		0.2264
12		N		-9.8029		0.1105		0.3747		N.1		1		UNL1		-0.4864
13		C		-6.7279		0.4357		-1.3140		C.ar		1		UNL1		-0.1407
14		C		-5.3609		0.4251		-1.5342		C.ar		1		UNL1		-0.2062
15		N		-0.8338		-0.0343		-0.7849		N.ar		1		UNL1		-0.5449
16		C		0.3059		-0.2906		-0.1600		C.ar		1		UNL1		0.4852
17		O		1.3797		-0.1448		-0.9865		O.3		1		UNL1		-0.5476
18		C		2.6649		0.1818		-0.5448		C.ar		1		UNL1		0.1791
19		C		2.8808		1.4892		-0.0158		C.ar		1		UNL1		0.1974
20		C		1.7420		2.4694		0.1234		C.3		1		UNL1		-0.5453
21		C		4.1681		1.8275		0.3364		C.ar		1		UNL1		-0.3004
22		C		5.2561		0.9324		0.1673		C.ar		1		UNL1		0.1739
23		C		6.5782		1.2933		0.5385		C.ar		1		UNL1		-0.1980
24		C		7.6275		0.4205		0.3591		C.ar		1		UNL1		-0.1349
25		C		7.3940		-0.8554		-0.2043		C.ar		1		UNL1		-0.1324
26		C		6.1222		-1.2336		-0.5773		C.ar		1		UNL1		-0.1994
27		C		5.0153		-0.3579		-0.4049		C.ar		1		UNL1		0.0583
28		C		3.6808		-0.7264		-0.7746		C.ar		1		UNL1		0.1015
29		C		3.3968		-2.0745		-1.3915		C.3		1		UNL1		-0.5455
30		H		1.2964		-1.5063		2.9430		H		1		UNL1		0.1601
31		H		2.1690		-1.8948		1.4569		H		1		UNL1		0.1751
32		H		2.2745		-0.2734		2.1364		H		1		UNL1		0.1810
33		H		-0.9598		-1.1414		2.8248		H		1		UNL1		0.1483
34		H		-2.8751		0.3606		-1.7736		H		1		UNL1		0.3479
35		H		-4.2939		-0.5394		1.5526		H		1		UNL1		0.1889
36		H		-6.7374		-0.5220		1.9519		H		1		UNL1		0.1568
37		H		-7.4056		0.7083		-2.1166		H		1		UNL1		0.1569
38		H		-4.9743		0.6914		-2.5153		H		1		UNL1		0.1365
39		H		2.1254		3.4680		0.3517		H		1		UNL1		0.1612
40		H		1.0494		2.1886		0.9266		H		1		UNL1		0.1664
41		H		1.1529		2.5267		-0.7983		H		1		UNL1		0.1836
42		H		4.3669		2.8169		0.7425		H		1		UNL1		0.1299
43		H		6.7469		2.2775		0.9694		H		1		UNL1		0.1324
44		H		8.6345		0.7083		0.6479		H		1		UNL1		0.1331
45		H		8.2246		-1.5419		-0.3443		H		1		UNL1		0.1325
46		H		5.9628		-2.2169		-1.0072		H		1		UNL1		0.1320
47		H		2.3467		-2.1667		-1.6702		H		1		UNL1		0.1820
48		H		3.6413		-2.8918		-0.7003		H		1		UNL1		0.1621
49		H		3.9986		-2.2286		-2.2950		H		1		UNL1		0.1692
@<TRIPOS>BOND
1		38		14		1
2		49		29		1
3		37		13		1
4		34		6		1
5		47		29		1
6		14		13		ar
7		14		7		ar
8		29		28		1
9		29		48		1
10		13		10		ar
11		46		26		1
12		17		18		1
13		17		16		1
14		6		7		1
15		6		5		1
16		41		20		1
17		15		16		ar
18		15		5		ar
19		28		18		ar
20		28		27		ar
21		26		27		ar
22		26		25		ar
23		18		19		ar
24		7		8		ar
25		27		22		ar
26		45		25		1
27		25		24		ar
28		16		2		ar
29		5		4		ar
30		10		11		1
31		10		9		ar
32		19		20		1
33		19		21		ar
34		20		39		1
35		20		40		1
36		22		21		ar
37		22		23		ar
38		11		12		3
39		21		42		1
40		24		23		ar
41		24		44		1
42		23		43		1
43		8		9		ar
44		8		35		1
45		9		36		1
46		2		3		ar
47		2		1		1
48		4		3		ar
49		31		1		1
50		3		33		1
51		1		32		1
52		1		30		1

