@<TRIPOS>MOLECULE
WHQ-2014-SQER-761-62
 51 54 0 0 0
SMALL
MULLIKEN_CHARGES
****
Gaussian 16 #p B3LYP/6-31G* opt
@<TRIPOS>ATOM
1		C		-0.8540		2.7160		0.9970		C.3		1		UNL1		-0.4495
2		C		-0.1840		2.6827		-0.3932		C.3		1		UNL1		-0.3815
3		C		0.9659		1.7060		-0.5084		C.ar		1		UNL1		0.1035
4		C		2.2362		1.9924		0.0727		C.ar		1		UNL1		0.5239
5		N		2.4448		3.1503		0.7581		N.pl3		1		UNL1		-0.6456
6		C		3.7369		3.5421		1.2932		C.3		1		UNL1		-0.2893
7		N		3.2968		1.1694		-0.0252		N.ar		1		UNL1		-0.5972
8		C		3.1010		0.0480		-0.7192		C.ar		1		UNL1		0.7084
9		N		4.1319		-0.8612		-0.8834		N.pl3		1		UNL1		-0.7800
10		C		5.4544		-0.8794		-0.4534		C.ar		1		UNL1		0.3851
11		C		6.0575		0.1388		0.3098		C.ar		1		UNL1		-0.1624
12		C		7.3884		0.0244		0.6893		C.ar		1		UNL1		-0.1569
13		C		8.1565		-1.0945		0.3263		C.ar		1		UNL1		0.1298
14		C		9.5264		-1.1983		0.7244		C.1		1		UNL1		0.2249
15		N		10.6416		-1.2823		1.0487		N.1		1		UNL1		-0.4880
16		C		7.5535		-2.1112		-0.4362		C.ar		1		UNL1		-0.1413
17		C		6.2271		-2.0029		-0.8174		C.ar		1		UNL1		-0.2049
18		N		1.9663		-0.3392		-1.3147		N.ar		1		UNL1		-0.5571
19		C		0.9331		0.4862		-1.1854		C.ar		1		UNL1		0.4524
20		O		-0.1501		0.0519		-1.9281		O.3		1		UNL1		-0.5535
21		C		-1.4664		0.0501		-1.5463		C.ar		1		UNL1		0.3250
22		C		-2.3664		0.5069		-2.5456		C.ar		1		UNL1		-0.1708
23		C		-3.7202		0.4812		-2.3401		C.ar		1		UNL1		-0.1890
24		C		-4.2589		-0.0008		-1.1176		C.ar		1		UNL1		0.1451
25		C		-5.6592		-0.0198		-0.8896		C.ar		1		UNL1		-0.2232
26		C		-6.1575		-0.4966		0.2980		C.ar		1		UNL1		0.0822
27		BR		-8.0433		-0.5195		0.6033		Br		1		UNL1		-0.1223
28		C		-5.2970		-0.9751		1.3093		C.ar		1		UNL1		-0.1486
29		C		-3.9352		-0.9663		1.1087		C.ar		1		UNL1		-0.1925
30		C		-3.3692		-0.4819		-0.1006		C.ar		1		UNL1		0.1058
31		C		-1.9639		-0.4570		-0.3591		C.ar		1		UNL1		-0.0301
32		BR		-0.7643		-1.1445		0.9532		Br		1		UNL1		-0.0913
33		H		-1.7245		3.3812		0.9930		H		1		UNL1		0.1503
34		H		-0.1659		3.0664		1.7745		H		1		UNL1		0.1405
35		H		-1.1790		1.7145		1.2883		H		1		UNL1		0.1753
36		H		-0.9402		2.4521		-1.1466		H		1		UNL1		0.1676
37		H		0.1728		3.6916		-0.6529		H		1		UNL1		0.1392
38		H		1.6917		3.8159		0.8017		H		1		UNL1		0.3383
39		H		4.4926		3.6309		0.5040		H		1		UNL1		0.1737
40		H		3.6234		4.5106		1.7861		H		1		UNL1		0.1539
41		H		4.0948		2.8132		2.0275		H		1		UNL1		0.1797
42		H		3.8285		-1.6594		-1.4270		H		1		UNL1		0.3481
43		H		5.4725		1.0014		0.5920		H		1		UNL1		0.1868
44		H		7.8456		0.8140		1.2777		H		1		UNL1		0.1520
45		H		8.1323		-2.9826		-0.7252		H		1		UNL1		0.1562
46		H		5.7726		-2.7960		-1.4067		H		1		UNL1		0.1371
47		H		-1.9370		0.8699		-3.4737		H		1		UNL1		0.1589
48		H		-4.3980		0.8337		-3.1124		H		1		UNL1		0.1483
49		H		-6.3276		0.3449		-1.6627		H		1		UNL1		0.1575
50		H		-5.7140		-1.3469		2.2387		H		1		UNL1		0.1599
51		H		-3.2770		-1.3338		1.8870		H		1		UNL1		0.1653
@<TRIPOS>BOND
1		47		22		1
2		48		23		1
3		22		23		ar
4		22		21		ar
5		23		24		ar
6		20		21		1
7		20		19		1
8		49		25		1
9		21		31		ar
10		42		9		1
11		46		17		1
12		18		19		ar
13		18		8		ar
14		19		3		ar
15		36		2		1
16		24		25		ar
17		24		30		ar
18		25		26		ar
19		9		8		1
20		9		10		1
21		17		10		ar
22		17		16		ar
23		45		16		1
24		8		7		ar
25		37		2		1
26		3		2		1
27		3		4		ar
28		10		11		ar
29		16		13		ar
30		2		1		1
31		31		30		ar
32		31		32		1
33		30		29		ar
34		7		4		ar
35		4		5		1
36		26		27		1
37		26		28		ar
38		11		43		1
39		11		12		ar
40		13		12		ar
41		13		14		1
42		39		6		1
43		12		44		1
44		14		15		3
45		5		38		1
46		5		6		1
47		33		1		1
48		1		35		1
49		1		34		1
50		29		28		ar
51		29		51		1
52		6		40		1
53		6		41		1
54		28		50		1

