@<TRIPOS>MOLECULE
WHQ-2013-BMC-6477-3-7g
 44 46 0 0 0
SMALL
MULLIKEN_CHARGES
****
Gaussian 16 #p B3LYP/6-31G* opt
@<TRIPOS>ATOM
1		C		-5.4994		-1.7558		-2.6364		C.3		1		UNL1		-0.2175
2		O		-5.7208		-1.3547		-1.2928		O.3		1		UNL1		-0.5049
3		C		-4.6376		-1.0561		-0.5208		C.ar		1		UNL1		0.3782
4		C		-4.9201		-0.6594		0.7960		C.ar		1		UNL1		-0.1704
5		C		-3.8854		-0.3356		1.6611		C.ar		1		UNL1		-0.1765
6		C		-2.5445		-0.3957		1.2465		C.ar		1		UNL1		0.1825
7		C		-1.4289		-0.0483		2.1907		C.3		1		UNL1		-0.5310
8		S		-1.0530		1.7743		2.3194		S.3		1		UNL1		0.1471
9		C		0.1077		1.9928		0.9931		C.ar		1		UNL1		0.3395
10		N		0.6729		0.9968		0.3794		N.ar		1		UNL1		-0.5194
11		C		1.5667		1.2889		-0.6345		C.ar		1		UNL1		0.1495
12		C		2.0880		0.0648		-1.3617		C.2		1		UNL1		0.3555
13		O		2.0821		0.0508		-2.5860		O.2		1		UNL1		-0.4621
14		C		2.5888		-1.1063		-0.5828		C.ar		1		UNL1		0.0812
15		C		2.8794		-1.0542		0.7907		C.ar		1		UNL1		-0.1571
16		C		3.4005		-2.1654		1.4484		C.ar		1		UNL1		-0.2088
17		C		3.6199		-3.3301		0.7199		C.ar		1		UNL1		0.3936
18		F		4.1158		-4.4088		1.3530		F		1		UNL1		-0.2880
19		C		3.3458		-3.4170		-0.6430		C.ar		1		UNL1		-0.2002
20		C		2.8373		-2.2967		-1.2883		C.ar		1		UNL1		-0.1581
21		C		1.9253		2.5585		-1.0152		C.ar		1		UNL1		0.0562
22		C		2.8920		2.9281		-2.1035		C.3		1		UNL1		-0.5054
23		C		1.3153		3.6833		-0.3060		C.ar		1		UNL1		0.5820
24		O		1.5249		4.8708		-0.5094		O.2		1		UNL1		-0.5097
25		N		0.3909		3.2914		0.6870		N.ar		1		UNL1		-0.6504
26		C		-2.2775		-0.7949		-0.0662		C.ar		1		UNL1		-0.1880
27		C		-3.3073		-1.1247		-0.9504		C.ar		1		UNL1		-0.1943
28		H		-4.9083		-2.6796		-2.6894		H		1		UNL1		0.1540
29		H		-6.4885		-1.9359		-3.0611		H		1		UNL1		0.1720
30		H		-4.9939		-0.9706		-3.2135		H		1		UNL1		0.1562
31		H		-5.9571		-0.6174		1.1140		H		1		UNL1		0.1415
32		H		-4.1215		-0.0308		2.6785		H		1		UNL1		0.1275
33		H		-1.6696		-0.3197		3.2225		H		1		UNL1		0.1912
34		H		-0.4870		-0.5232		1.9122		H		1		UNL1		0.2229
35		H		2.6998		-0.1437		1.3498		H		1		UNL1		0.1580
36		H		3.6377		-2.1430		2.5068		H		1		UNL1		0.1544
37		H		3.5367		-4.3459		-1.1702		H		1		UNL1		0.1558
38		H		2.6248		-2.3190		-2.3519		H		1		UNL1		0.1715
39		H		3.5544		3.7252		-1.7508		H		1		UNL1		0.1733
40		H		2.3523		3.3313		-2.9694		H		1		UNL1		0.1803
41		H		3.4797		2.0769		-2.4455		H		1		UNL1		0.1692
42		H		-0.0782		4.0552		1.1644		H		1		UNL1		0.3579
43		H		-1.2477		-0.8460		-0.4068		H		1		UNL1		0.1528
44		H		-3.0606		-1.4322		-1.9601		H		1		UNL1		0.1380
@<TRIPOS>BOND
1		30		1		1
2		29		1		1
3		40		22		1
4		28		1		1
5		1		2		1
6		13		12		2
7		41		22		1
8		38		20		1
9		22		39		1
10		22		21		1
11		44		27		1
12		12		11		1
13		12		14		1
14		2		3		1
15		20		19		ar
16		20		14		ar
17		37		19		1
18		21		11		ar
19		21		23		ar
20		27		3		ar
21		27		26		ar
22		19		17		ar
23		11		10		ar
24		14		15		ar
25		3		4		ar
26		24		23		2
27		43		26		1
28		23		25		ar
29		26		6		ar
30		10		9		ar
31		25		9		ar
32		25		42		1
33		17		18		1
34		17		16		ar
35		15		35		1
36		15		16		ar
37		4		31		1
38		4		5		ar
39		9		8		1
40		6		5		ar
41		6		7		1
42		16		36		1
43		5		32		1
44		34		7		1
45		7		8		1
46		7		33		1

