@<TRIPOS>MOLECULE
WHQ-2014-MCC-5468-3-1j
 49 51 0 0 0
SMALL
MULLIKEN_CHARGES
****
Gaussian 16 #p B3LYP/6-31G* opt
@<TRIPOS>ATOM
1		C		2.4924		-2.3812		-3.0040		C.3		1		UNL1		-0.4465
2		C		2.9150		-2.1575		-1.5396		C.3		1		UNL1		-0.3453
3		C		1.7428		-1.9227		-0.6183		C.ar		1		UNL1		0.0528
4		C		1.2714		-0.7038		-0.2005		C.ar		1		UNL1		0.2409
5		C		1.9436		0.6038		-0.6385		C.3		1		UNL1		-0.3442
6		C		0.9499		1.6804		-0.7939		C.1		1		UNL1		0.4099
7		N		0.1888		2.5448		-0.9381		N.1		1		UNL1		-0.4887
8		C		3.0621		1.0514		0.3147		C.ar		1		UNL1		0.1689
9		C		2.8439		1.0566		1.6997		C.ar		1		UNL1		-0.1630
10		C		3.8365		1.4598		2.5885		C.ar		1		UNL1		-0.1268
11		C		5.0783		1.8724		2.1038		C.ar		1		UNL1		-0.1201
12		C		5.3185		1.8859		0.7321		C.ar		1		UNL1		-0.1266
13		C		4.3135		1.4821		-0.1485		C.ar		1		UNL1		-0.1292
14		CL		4.6769		1.5453		-1.8745		Cl		1		UNL1		-0.0065
15		N		0.2046		-0.5300		0.6530		N.ar		1		UNL1		-0.5183
16		C		-0.4254		-1.5921		1.0629		C.ar		1		UNL1		0.3360
17		S		-1.7792		-1.5314		2.2073		S.3		1		UNL1		0.1464
18		C		-2.3200		0.2522		2.0845		C.3		1		UNL1		-0.5394
19		C		-3.4006		0.5056		1.0716		C.ar		1		UNL1		0.1833
20		C		-3.1017		1.1100		-0.1605		C.ar		1		UNL1		-0.1960
21		C		-4.1005		1.3533		-1.0944		C.ar		1		UNL1		-0.1785
22		C		-5.4280		0.9937		-0.8212		C.ar		1		UNL1		0.3775
23		O		-6.3332		1.2728		-1.8029		O.3		1		UNL1		-0.5037
24		C		-7.6930		0.9357		-1.5809		C.3		1		UNL1		-0.2155
25		C		-5.7433		0.3935		0.4050		C.ar		1		UNL1		-0.1945
26		C		-4.7295		0.1590		1.3345		C.ar		1		UNL1		-0.1812
27		N		-0.0609		-2.8459		0.6747		N.ar		1		UNL1		-0.6494
28		C		1.0356		-3.1200		-0.1722		C.ar		1		UNL1		0.5885
29		O		1.2987		-4.2778		-0.4699		O.2		1		UNL1		-0.5186
30		H		1.8199		-3.2409		-3.0790		H		1		UNL1		0.1738
31		H		1.9758		-1.5047		-3.4124		H		1		UNL1		0.1440
32		H		3.3702		-2.5787		-3.6288		H		1		UNL1		0.1519
33		H		3.4360		-3.0544		-1.1876		H		1		UNL1		0.1755
34		H		3.6298		-1.3315		-1.4773		H		1		UNL1		0.1546
35		H		2.3808		0.4509		-1.6276		H		1		UNL1		0.2200
36		H		1.8748		0.7390		2.0711		H		1		UNL1		0.1704
37		H		3.6392		1.4527		3.6563		H		1		UNL1		0.1452
38		H		5.8608		2.1880		2.7878		H		1		UNL1		0.1470
39		H		6.2753		2.2088		0.3366		H		1		UNL1		0.1613
40		H		-2.6493		0.4771		3.1030		H		1		UNL1		0.1922
41		H		-1.4130		0.8215		1.8742		H		1		UNL1		0.2317
42		H		-2.0815		1.4077		-0.3848		H		1		UNL1		0.1821
43		H		-3.8751		1.8286		-2.0438		H		1		UNL1		0.1468
44		H		-7.8227		-0.1446		-1.4322		H		1		UNL1		0.1521
45		H		-8.2280		1.2419		-2.4817		H		1		UNL1		0.1716
46		H		-8.1060		1.4704		-0.7152		H		1		UNL1		0.1522
47		H		-6.7622		0.1126		0.6456		H		1		UNL1		0.1321
48		H		-4.9877		-0.3067		2.2836		H		1		UNL1		0.1242
49		H		-0.5960		-3.6579		0.9672		H		1		UNL1		0.3589
@<TRIPOS>BOND
1		32		1		1
2		31		1		1
3		30		1		1
4		1		2		1
5		45		24		1
6		43		21		1
7		14		13		1
8		23		24		1
9		23		22		1
10		35		5		1
11		24		44		1
12		24		46		1
13		2		34		1
14		2		33		1
15		2		3		1
16		21		22		ar
17		21		20		ar
18		7		6		3
19		22		25		ar
20		6		5		1
21		5		4		1
22		5		8		1
23		3		4		ar
24		3		28		ar
25		29		28		2
26		42		20		1
27		4		15		ar
28		28		27		ar
29		20		19		ar
30		13		8		ar
31		13		12		ar
32		8		9		ar
33		39		12		1
34		25		47		1
35		25		26		ar
36		15		16		ar
37		27		49		1
38		27		16		ar
39		12		11		ar
40		16		17		1
41		19		26		ar
42		19		18		1
43		26		48		1
44		9		36		1
45		9		10		ar
46		41		18		1
47		18		17		1
48		18		40		1
49		11		10		ar
50		11		38		1
51		10		37		1

