@<TRIPOS>MOLECULE
WHQ-2014-SQER-761-63
 52 55 0 0 0
SMALL
MULLIKEN_CHARGES
****
Gaussian 16 #p B3LYP/6-31G* opt
@<TRIPOS>ATOM
1		C		0.1648		5.1216		1.0333		C.3		1		UNL1		-0.4381
2		C		0.2412		4.3941		-0.3231		C.3		1		UNL1		-0.3570
3		C		0.7553		2.9770		-0.2290		C.ar		1		UNL1		0.0399
4		C		2.1332		2.6422		-0.1881		C.ar		1		UNL1		0.5296
5		N		3.0912		3.6065		-0.2426		N.pl3		1		UNL1		-0.6501
6		C		4.5165		3.3294		-0.2252		C.3		1		UNL1		-0.2890
7		N		2.5760		1.3691		-0.1053		N.ar		1		UNL1		-0.6002
8		C		1.6405		0.4237		-0.0464		C.ar		1		UNL1		0.7096
9		N		1.9982		-0.9101		0.0398		N.pl3		1		UNL1		-0.7807
10		C		3.2300		-1.5572		0.0846		C.ar		1		UNL1		0.3840
11		C		3.2056		-2.9638		0.1920		C.ar		1		UNL1		-0.2054
12		C		4.3795		-3.6964		0.2410		C.ar		1		UNL1		-0.1411
13		C		5.6240		-3.0435		0.1840		C.ar		1		UNL1		0.1306
14		C		6.8417		-3.7925		0.2338		C.1		1		UNL1		0.2258
15		N		7.8332		-4.4015		0.2740		N.1		1		UNL1		-0.4862
16		C		5.6492		-1.6430		0.0774		C.ar		1		UNL1		-0.1567
17		C		4.4751		-0.9028		0.0276		C.ar		1		UNL1		-0.1619
18		N		0.3085		0.6056		-0.0520		N.ar		1		UNL1		-0.5869
19		C		-0.0885		1.8709		-0.1401		C.ar		1		UNL1		0.5119
20		O		-1.4329		2.1301		-0.1155		O.3		1		UNL1		-0.5768
21		C		-2.3576		1.1085		-0.2713		C.ar		1		UNL1		0.3758
22		C		-2.3502		0.2903		-1.4289		C.ar		1		UNL1		-0.1359
23		C		-3.3455		-0.6391		-1.6053		C.ar		1		UNL1		-0.2041
24		C		-4.3878		-0.7911		-0.6486		C.ar		1		UNL1		0.1439
25		C		-5.4226		-1.7416		-0.8123		C.ar		1		UNL1		-0.2159
26		C		-6.4267		-1.8643		0.1357		C.ar		1		UNL1		0.1307
27		C		-7.4694		-2.8317		-0.0414		C.1		1		UNL1		0.2345
28		N		-8.3187		-3.6152		-0.1789		N.1		1		UNL1		-0.4794
29		C		-6.4269		-1.0292		1.2905		C.ar		1		UNL1		-0.1437
30		C		-5.4320		-0.0995		1.4664		C.ar		1		UNL1		-0.1947
31		C		-4.3882		0.0496		0.5123		C.ar		1		UNL1		0.1422
32		C		-3.3478		0.9994		0.6754		C.ar		1		UNL1		-0.2494
33		H		-0.5219		4.6002		1.7079		H		1		UNL1		0.1613
34		H		1.1429		5.1647		1.5268		H		1		UNL1		0.1414
35		H		-0.1964		6.1486		0.9062		H		1		UNL1		0.1493
36		H		0.8686		4.9714		-1.0182		H		1		UNL1		0.1321
37		H		-0.7556		4.3761		-0.7730		H		1		UNL1		0.1722
38		H		2.7911		4.5665		-0.2751		H		1		UNL1		0.3387
39		H		4.8109		2.7048		-1.0757		H		1		UNL1		0.1767
40		H		5.0508		4.2804		-0.2856		H		1		UNL1		0.1551
41		H		4.8133		2.8150		0.6956		H		1		UNL1		0.1766
42		H		1.1818		-1.5059		0.0910		H		1		UNL1		0.3468
43		H		2.2498		-3.4806		0.2375		H		1		UNL1		0.1370
44		H		4.3419		-4.7778		0.3239		H		1		UNL1		0.1575
45		H		6.6055		-1.1310		0.0329		H		1		UNL1		0.1533
46		H		4.5008		0.1736		-0.0536		H		1		UNL1		0.1877
47		H		-1.5591		0.4092		-2.1601		H		1		UNL1		0.1523
48		H		-3.3496		-1.2700		-2.4903		H		1		UNL1		0.1462
49		H		-5.4273		-2.3799		-1.6910		H		1		UNL1		0.1595
50		H		-7.2204		-1.1393		2.0223		H		1		UNL1		0.1585
51		H		-5.4325		0.5374		2.3470		H		1		UNL1		0.1455
52		H		-3.3294		1.6478		1.5459		H		1		UNL1		0.1467
@<TRIPOS>BOND
1		48		23		1
2		47		22		1
3		49		25		1
4		23		22		ar
5		23		24		ar
6		22		21		ar
7		39		6		1
8		36		2		1
9		25		24		ar
10		25		26		ar
11		37		2		1
12		24		31		ar
13		2		3		1
14		2		1		1
15		40		6		1
16		38		5		1
17		21		20		1
18		21		32		ar
19		5		6		1
20		5		4		1
21		3		4		ar
22		3		19		ar
23		6		41		1
24		4		7		ar
25		28		27		3
26		19		20		1
27		19		18		ar
28		7		8		ar
29		46		17		1
30		18		8		ar
31		8		9		1
32		27		26		1
33		17		16		ar
34		17		10		ar
35		45		16		1
36		9		10		1
37		9		42		1
38		16		13		ar
39		10		11		ar
40		26		29		ar
41		13		14		1
42		13		12		ar
43		11		43		1
44		11		12		ar
45		14		15		3
46		12		44		1
47		31		32		ar
48		31		30		ar
49		32		52		1
50		35		1		1
51		1		34		1
52		1		33		1
53		29		30		ar
54		29		50		1
55		30		51		1

