@<TRIPOS>MOLECULE
WHQ-2014-SQER-761-21
 43 46 0 0 0
SMALL
MULLIKEN_CHARGES
****
Gaussian 16 #p B3LYP/6-31G* opt
@<TRIPOS>ATOM
1		C		6.0089		-0.4448		-0.1638		C.3		1		UNL1		-0.5115
2		C		4.5099		-0.3724		-0.2785		C.ar		1		UNL1		0.3385
3		C		3.8553		0.8119		-0.6125		C.ar		1		UNL1		-0.2530
4		C		2.4620		0.7394		-0.6830		C.ar		1		UNL1		0.5895
5		O		1.7977		1.8774		-1.0187		O.3		1		UNL1		-0.5629
6		C		0.4086		1.8610		-1.0730		C.ar		1		UNL1		0.3275
7		C		-0.2022		1.6277		-2.3245		C.ar		1		UNL1		-0.1496
8		C		-1.5688		1.6854		-2.4411		C.ar		1		UNL1		-0.2036
9		C		-2.3848		1.9790		-1.3167		C.ar		1		UNL1		0.1505
10		C		-3.8002		2.0360		-1.4226		C.ar		1		UNL1		-0.1978
11		C		-4.5826		2.3210		-0.3277		C.ar		1		UNL1		-0.1292
12		C		-3.9773		2.5643		0.9276		C.ar		1		UNL1		-0.1327
13		C		-2.6085		2.5186		1.0691		C.ar		1		UNL1		-0.1862
14		C		-1.7720		2.2254		-0.0406		C.ar		1		UNL1		0.0868
15		C		-0.3494		2.1576		0.0388		C.ar		1		UNL1		-0.0110
16		BR		0.5478		2.4677		1.6906		Br		1		UNL1		-0.1025
17		N		1.7700		-0.3670		-0.4552		N.ar		1		UNL1		-0.5527
18		C		2.5008		-1.4474		-0.1393		C.ar		1		UNL1		0.6952
19		N		1.8696		-2.6471		0.1166		N.pl3		1		UNL1		-0.7718
20		C		0.5269		-3.0243		0.1350		C.ar		1		UNL1		0.3811
21		C		0.2551		-4.3796		0.4150		C.ar		1		UNL1		-0.2046
22		C		-1.0458		-4.8522		0.4581		C.ar		1		UNL1		-0.1411
23		C		-2.1230		-3.9796		0.2214		C.ar		1		UNL1		0.1306
24		C		-3.4699		-4.4602		0.2619		C.1		1		UNL1		0.2266
25		N		-4.5659		-4.8519		0.2939		N.1		1		UNL1		-0.4874
26		C		-1.8530		-2.6293		-0.0558		C.ar		1		UNL1		-0.1589
27		C		-0.5502		-2.1493		-0.1006		C.ar		1		UNL1		-0.1615
28		N		3.8376		-1.5109		-0.0399		N.ar		1		UNL1		-0.5514
29		H		6.4035		-1.1963		-0.8564		H		1		UNL1		0.1785
30		H		6.4793		0.5181		-0.3799		H		1		UNL1		0.1590
31		H		6.2936		-0.7593		0.8464		H		1		UNL1		0.1800
32		H		4.3781		1.7401		-0.8045		H		1		UNL1		0.1525
33		H		0.4343		1.4073		-3.1751		H		1		UNL1		0.1512
34		H		-2.0436		1.5050		-3.4016		H		1		UNL1		0.1454
35		H		-4.2543		1.8474		-2.3922		H		1		UNL1		0.1393
36		H		-5.6639		2.3588		-0.4232		H		1		UNL1		0.1405
37		H		-4.5990		2.7878		1.7899		H		1		UNL1		0.1409
38		H		-2.1504		2.7034		2.0339		H		1		UNL1		0.1586
39		H		2.5402		-3.3745		0.3305		H		1		UNL1		0.3465
40		H		1.0798		-5.0643		0.5991		H		1		UNL1		0.1362
41		H		-1.2371		-5.8983		0.6744		H		1		UNL1		0.1564
42		H		-2.6768		-1.9461		-0.2370		H		1		UNL1		0.1604
43		H		-0.3568		-1.1086		-0.3138		H		1		UNL1		0.1975
@<TRIPOS>BOND
1		34		8		1
2		33		7		1
3		8		7		ar
4		8		9		ar
5		35		10		1
6		7		6		ar
7		10		9		ar
8		10		11		ar
9		9		14		ar
10		6		5		1
11		6		15		ar
12		5		4		1
13		29		1		1
14		32		3		1
15		4		3		ar
16		4		17		ar
17		3		2		ar
18		17		18		ar
19		36		11		1
20		30		1		1
21		11		12		ar
22		43		27		1
23		2		1		1
24		2		28		ar
25		42		26		1
26		1		31		1
27		18		28		ar
28		18		19		1
29		27		26		ar
30		27		20		ar
31		26		23		ar
32		14		15		ar
33		14		13		ar
34		15		16		1
35		19		20		1
36		19		39		1
37		20		21		ar
38		23		24		1
39		23		22		ar
40		24		25		3
41		21		22		ar
42		21		40		1
43		22		41		1
44		12		13		ar
45		12		37		1
46		13		38		1

