@<TRIPOS>MOLECULE
WHQ-2015-BMC-624-3-3m
 45 47 0 0 0
SMALL
MULLIKEN_CHARGES
****
Gaussian 16 #p B3LYP/6-31G* opt
@<TRIPOS>ATOM
1		C		3.2566		4.2437		-0.3019		C.3		1		UNL1		-0.5144
2		C		2.4821		2.9570		-0.2194		C.ar		1		UNL1		0.3441
3		C		1.0964		2.9313		-0.2193		C.ar		1		UNL1		-0.2569
4		C		0.5009		1.6610		-0.1370		C.ar		1		UNL1		0.6053
5		O		-0.8455		1.6161		-0.1385		O.3		1		UNL1		-0.4854
6		C		-1.4614		0.3403		-0.0296		C.3		1		UNL1		-0.1205
7		C		-2.9488		0.5819		0.2504		C.2		1		UNL1		0.6112
8		O		-3.3380		1.5019		0.9441		O.2		1		UNL1		-0.4719
9		N		-3.7608		-0.3814		-0.3148		N.am		1		UNL1		-0.7279
10		C		-5.1506		-0.5513		-0.1773		C.ar		1		UNL1		0.3744
11		C		-5.9587		0.3087		0.5854		C.ar		1		UNL1		-0.1658
12		C		-7.3248		0.0667		0.6718		C.ar		1		UNL1		-0.1523
13		C		-7.9115		-1.0224		0.0070		C.ar		1		UNL1		0.1356
14		C		-9.3204		-1.2605		0.1030		C.1		1		UNL1		0.2326
15		N		-10.4649		-1.4567		0.1795		N.1		1		UNL1		-0.4770
16		C		-7.0986		-1.8774		-0.7562		C.ar		1		UNL1		-0.1399
17		C		-5.7351		-1.6418		-0.8445		C.ar		1		UNL1		-0.2018
18		N		1.1947		0.5366		-0.0637		N.ar		1		UNL1		-0.5981
19		C		2.5424		0.6818		-0.0666		C.ar		1		UNL1		0.7046
20		N		3.2096		-0.5232		0.0184		N.pl3		1		UNL1		-0.7707
21		C		4.5672		-0.8465		0.0455		C.ar		1		UNL1		0.3826
22		C		5.6101		0.0957		-0.0215		C.ar		1		UNL1		-0.1588
23		C		6.9310		-0.3337		0.0117		C.ar		1		UNL1		-0.1536
24		C		7.2515		-1.6976		0.1114		C.ar		1		UNL1		0.1316
25		C		8.6164		-2.1258		0.1439		C.1		1		UNL1		0.2276
26		N		9.7264		-2.4757		0.1701		N.1		1		UNL1		-0.4837
27		C		6.2076		-2.6373		0.1787		C.ar		1		UNL1		-0.1402
28		C		4.8890		-2.2155		0.1460		C.ar		1		UNL1		-0.2061
29		N		3.2185		1.8248		-0.1432		N.ar		1		UNL1		-0.5434
30		H		3.9123		4.2323		-1.1799		H		1		UNL1		0.1798
31		H		3.9005		4.3520		0.5781		H		1		UNL1		0.1810
32		H		2.5956		5.1119		-0.3651		H		1		UNL1		0.1623
33		H		0.4889		3.8256		-0.2738		H		1		UNL1		0.1577
34		H		-1.2923		-0.2415		-0.9448		H		1		UNL1		0.1546
35		H		-1.0272		-0.2251		0.8035		H		1		UNL1		0.1963
36		H		-3.3054		-1.0622		-0.9088		H		1		UNL1		0.3370
37		H		-5.5117		1.1505		1.0943		H		1		UNL1		0.2024
38		H		-7.9486		0.7310		1.2611		H		1		UNL1		0.1667
39		H		-7.5406		-2.7217		-1.2748		H		1		UNL1		0.1635
40		H		-5.1140		-2.3104		-1.4366		H		1		UNL1		0.1377
41		H		2.5691		-1.3042		0.0741		H		1		UNL1		0.3416
42		H		5.3692		1.1460		-0.0980		H		1		UNL1		0.1879
43		H		7.7308		0.3983		-0.0403		H		1		UNL1		0.1586
44		H		6.4386		-3.6948		0.2564		H		1		UNL1		0.1582
45		H		4.0903		-2.9519		0.1990		H		1		UNL1		0.1337
@<TRIPOS>BOND
1		40		17		1
2		39		16		1
3		30		1		1
4		34		6		1
5		36		9		1
6		17		16		ar
7		17		10		ar
8		16		13		ar
9		32		1		1
10		9		10		1
11		9		7		1
12		1		2		1
13		1		31		1
14		33		3		1
15		2		3		ar
16		2		29		ar
17		3		4		ar
18		10		11		ar
19		29		19		ar
20		5		4		1
21		5		6		1
22		4		18		ar
23		42		22		1
24		19		18		ar
25		19		20		1
26		43		23		1
27		6		7		1
28		6		35		1
29		22		23		ar
30		22		21		ar
31		13		14		1
32		13		12		ar
33		23		24		ar
34		20		21		1
35		20		41		1
36		21		28		ar
37		14		15		3
38		24		25		1
39		24		27		ar
40		25		26		3
41		28		27		ar
42		28		45		1
43		27		44		1
44		7		8		2
45		11		12		ar
46		11		37		1
47		12		38		1

