@<TRIPOS>MOLECULE
WHQ-2014-SQER-761-38
 46 49 0 0 0
SMALL
MULLIKEN_CHARGES
****
Gaussian 16 #p B3LYP/6-31G* opt
@<TRIPOS>ATOM
1		C		0.8534		4.6684		-1.5565		C.3		1		UNL1		-0.4434
2		C		0.6420		4.0182		-0.1772		C.3		1		UNL1		-0.3336
3		C		-0.1637		2.7444		-0.2343		C.ar		1		UNL1		0.0954
4		C		-1.5363		2.6270		-0.0349		C.ar		1		UNL1		0.0648
5		CL		-2.4935		4.0648		0.3046		Cl		1		UNL1		0.0145
6		N		-2.2310		1.4946		-0.0714		N.ar		1		UNL1		-0.4916
7		C		-1.5261		0.3909		-0.3271		C.ar		1		UNL1		0.7029
8		N		-2.1430		-0.8383		-0.3736		N.pl3		1		UNL1		-0.7728
9		C		-3.4715		-1.2309		-0.1930		C.ar		1		UNL1		0.3818
10		C		-3.7414		-2.6096		-0.3076		C.ar		1		UNL1		-0.2056
11		C		-5.0269		-3.0991		-0.1474		C.ar		1		UNL1		-0.1402
12		C		-6.0872		-2.2194		0.1338		C.ar		1		UNL1		0.1321
13		C		-7.4181		-2.7182		0.3000		C.1		1		UNL1		0.2283
14		N		-8.5000		-3.1266		0.4343		N.1		1		UNL1		-0.4838
15		C		-5.8177		-0.8458		0.2483		C.ar		1		UNL1		-0.1538
16		C		-4.5301		-0.3482		0.0887		C.ar		1		UNL1		-0.1622
17		N		-0.2003		0.3405		-0.5645		N.ar		1		UNL1		-0.5607
18		C		0.4357		1.4950		-0.5183		C.ar		1		UNL1		0.5467
19		O		1.7714		1.5216		-0.7732		O.3		1		UNL1		-0.5619
20		C		2.4690		0.3245		-0.8910		C.ar		1		UNL1		0.3324
21		C		2.6506		-0.2218		-2.1793		C.ar		1		UNL1		-0.1484
22		C		3.4150		-1.3507		-2.3396		C.ar		1		UNL1		-0.2055
23		C		4.0292		-1.9807		-1.2252		C.ar		1		UNL1		0.1547
24		C		4.8225		-3.1489		-1.3786		C.ar		1		UNL1		-0.1973
25		C		5.4156		-3.7514		-0.2935		C.ar		1		UNL1		-0.1295
26		C		5.2393		-3.2063		0.9999		C.ar		1		UNL1		-0.1331
27		C		4.4782		-2.0745		1.1882		C.ar		1		UNL1		-0.1868
28		C		3.8519		-1.4286		0.0894		C.ar		1		UNL1		0.0867
29		C		3.0528		-0.2545		0.2140		C.ar		1		UNL1		-0.0092
30		BR		2.7676		0.5566		1.9154		Br		1		UNL1		-0.1019
31		H		1.3820		3.9889		-2.2332		H		1		UNL1		0.1543
32		H		1.4505		5.5818		-1.4596		H		1		UNL1		0.1519
33		H		-0.1036		4.9356		-2.0172		H		1		UNL1		0.1571
34		H		0.1419		4.7271		0.4889		H		1		UNL1		0.1666
35		H		1.6148		3.7873		0.2693		H		1		UNL1		0.1703
36		H		-1.4834		-1.5804		-0.5699		H		1		UNL1		0.3509
37		H		-2.9289		-3.2992		-0.5245		H		1		UNL1		0.1376
38		H		-5.2189		-4.1632		-0.2384		H		1		UNL1		0.1585
39		H		-6.6302		-0.1597		0.4655		H		1		UNL1		0.1611
40		H		-4.3345		0.7104		0.1794		H		1		UNL1		0.1991
41		H		2.1787		0.2729		-3.0216		H		1		UNL1		0.1517
42		H		3.5602		-1.7762		-3.3288		H		1		UNL1		0.1448
43		H		4.9518		-3.5587		-2.3773		H		1		UNL1		0.1383
44		H		6.0194		-4.6446		-0.4262		H		1		UNL1		0.1393
45		H		5.7094		-3.6855		1.8541		H		1		UNL1		0.1408
46		H		4.3461		-1.6614		2.1817		H		1		UNL1		0.1587
@<TRIPOS>BOND
1		42		22		1
2		41		21		1
3		43		24		1
4		22		21		ar
5		22		23		ar
6		31		1		1
7		21		20		ar
8		33		1		1
9		1		32		1
10		1		2		1
11		24		23		ar
12		24		25		ar
13		23		28		ar
14		20		19		1
15		20		29		ar
16		19		18		1
17		36		8		1
18		17		18		ar
19		17		7		ar
20		37		10		1
21		18		3		ar
22		44		25		1
23		8		7		1
24		8		9		1
25		7		6		ar
26		10		9		ar
27		10		11		ar
28		25		26		ar
29		38		11		1
30		3		2		1
31		3		4		ar
32		9		16		ar
33		2		35		1
34		2		34		1
35		11		12		ar
36		6		4		ar
37		4		5		1
38		16		40		1
39		16		15		ar
40		28		29		ar
41		28		27		ar
42		12		15		ar
43		12		13		1
44		29		30		1
45		15		39		1
46		13		14		3
47		26		27		ar
48		26		45		1
49		27		46		1

