@<TRIPOS>MOLECULE
WHQ-2014-SQER-761-24
 43 46 0 0 0
SMALL
MULLIKEN_CHARGES
****
Gaussian 16 #p B3LYP/6-31G* opt
@<TRIPOS>ATOM
1		C		-1.9507		-2.4342		-1.9926		C.3		1		UNL1		-0.5142
2		C		-2.0153		-1.4341		-0.8700		C.ar		1		UNL1		0.3411
3		C		-0.8664		-0.9813		-0.2280		C.ar		1		UNL1		-0.2506
4		C		-1.0655		-0.0490		0.8004		C.ar		1		UNL1		0.5532
5		O		-0.0511		0.4877		1.5414		O.3		1		UNL1		-0.5317
6		C		1.2612		0.1328		1.2879		C.ar		1		UNL1		0.2926
7		C		1.8533		-0.8313		2.1358		C.ar		1		UNL1		-0.1535
8		C		3.1787		-1.1575		1.9904		C.ar		1		UNL1		-0.1981
9		C		3.9733		-0.5361		0.9910		C.ar		1		UNL1		0.1537
10		C		5.3448		-0.8686		0.8330		C.ar		1		UNL1		-0.2250
11		C		6.0953		-0.2537		-0.1385		C.ar		1		UNL1		0.0843
12		BR		7.9386		-0.7044		-0.3485		Br		1		UNL1		-0.1155
13		C		5.5298		0.7154		-0.9970		C.ar		1		UNL1		-0.1495
14		C		4.2034		1.0544		-0.8630		C.ar		1		UNL1		-0.1870
15		C		3.3848		0.4472		0.1262		C.ar		1		UNL1		0.0971
16		C		2.0064		0.7616		0.3103		C.ar		1		UNL1		-0.0138
17		BR		1.1511		2.0590		-0.7889		Br		1		UNL1		-0.0860
18		N		-2.2575		0.3890		1.1594		N.ar		1		UNL1		-0.5481
19		C		-3.2995		-0.1155		0.4683		C.ar		1		UNL1		0.7003
20		N		-4.5140		0.3847		0.8912		N.pl3		1		UNL1		-0.7717
21		C		-5.8248		0.1523		0.4755		C.ar		1		UNL1		0.3828
22		C		-6.8382		0.8608		1.1536		C.ar		1		UNL1		-0.2057
23		C		-8.1709		0.6980		0.8147		C.ar		1		UNL1		-0.1407
24		C		-8.5347		-0.1833		-0.2190		C.ar		1		UNL1		0.1309
25		C		-9.9095		-0.3574		-0.5751		C.1		1		UNL1		0.2267
26		N		-11.0284		-0.4986		-0.8641		N.1		1		UNL1		-0.4858
27		C		-7.5255		-0.8890		-0.8947		C.ar		1		UNL1		-0.1538
28		C		-6.1868		-0.7301		-0.5595		C.ar		1		UNL1		-0.1595
29		N		-3.2443		-1.0047		-0.5271		N.ar		1		UNL1		-0.5400
30		H		-2.3894		-2.0071		-2.9013		H		1		UNL1		0.1818
31		H		-0.9232		-2.7395		-2.2072		H		1		UNL1		0.1594
32		H		-2.5393		-3.3230		-1.7391		H		1		UNL1		0.1802
33		H		0.1181		-1.3279		-0.5114		H		1		UNL1		0.1551
34		H		1.2337		-1.2886		2.9002		H		1		UNL1		0.1608
35		H		3.6360		-1.8961		2.6424		H		1		UNL1		0.1518
36		H		5.7897		-1.6111		1.4872		H		1		UNL1		0.1604
37		H		6.1455		1.1854		-1.7558		H		1		UNL1		0.1630
38		H		3.7681		1.7975		-1.5211		H		1		UNL1		0.1684
39		H		-4.3984		1.0478		1.6472		H		1		UNL1		0.3494
40		H		-6.5692		1.5454		1.9547		H		1		UNL1		0.1377
41		H		-8.9385		1.2509		1.3465		H		1		UNL1		0.1575
42		H		-7.7975		-1.5712		-1.6941		H		1		UNL1		0.1564
43		H		-5.4151		-1.2754		-1.0830		H		1		UNL1		0.1856
@<TRIPOS>BOND
1		30		1		1
2		31		1		1
3		1		32		1
4		1		2		1
5		37		13		1
6		42		27		1
7		38		14		1
8		43		28		1
9		13		14		ar
10		13		11		ar
11		27		28		ar
12		27		24		ar
13		2		29		ar
14		2		3		ar
15		26		25		3
16		14		15		ar
17		17		16		1
18		25		24		1
19		28		21		ar
20		29		19		ar
21		33		3		1
22		12		11		1
23		3		4		ar
24		24		23		ar
25		11		10		ar
26		15		16		ar
27		15		9		ar
28		16		6		ar
29		19		20		1
30		19		18		ar
31		21		20		1
32		21		22		ar
33		4		18		ar
34		4		5		1
35		23		22		ar
36		23		41		1
37		10		9		ar
38		10		36		1
39		20		39		1
40		9		8		ar
41		22		40		1
42		6		5		1
43		6		7		ar
44		8		7		ar
45		8		35		1
46		7		34		1

