@<TRIPOS>MOLECULE
WHQ-2014-SQER-761-33
 41 44 0 0 0
SMALL
MULLIKEN_CHARGES
****
Gaussian 16 #p B3LYP/6-31G* opt
@<TRIPOS>ATOM
1		N		-7.9295		-3.9691		0.1866		N.1		1		UNL1		-0.4803
2		C		-6.9329		-3.3687		0.1514		C.1		1		UNL1		0.2303
3		C		-5.7060		-2.6329		0.1076		C.ar		1		UNL1		0.1337
4		C		-5.7137		-1.2288		0.1137		C.ar		1		UNL1		-0.1532
5		C		-4.5298		-0.5019		0.0712		C.ar		1		UNL1		-0.1606
6		C		-3.2987		-1.1793		0.0211		C.ar		1		UNL1		0.3795
7		N		-2.0493		-0.5496		-0.0261		N.pl3		1		UNL1		-0.7687
8		C		-1.6781		0.7717		-0.0246		C.ar		1		UNL1		0.7043
9		N		-2.6084		1.7334		0.0273		N.ar		1		UNL1		-0.4898
10		C		-2.1417		2.9762		0.0265		C.ar		1		UNL1		0.1359
11		CL		-3.3407		4.2521		0.0926		Cl		1		UNL1		0.0251
12		C		-0.8007		3.3164		-0.0238		C.ar		1		UNL1		-0.2075
13		C		0.0684		2.2137		-0.0747		C.ar		1		UNL1		0.5790
14		O		1.3925		2.4943		-0.1066		O.3		1		UNL1		-0.5595
15		C		2.3290		1.4728		-0.2708		C.ar		1		UNL1		0.3606
16		C		2.3860		0.7500		-1.4861		C.ar		1		UNL1		-0.1377
17		C		3.3808		-0.1794		-1.6682		C.ar		1		UNL1		-0.2028
18		C		4.3535		-0.4206		-0.6582		C.ar		1		UNL1		0.1450
19		C		5.3864		-1.3732		-0.8266		C.ar		1		UNL1		-0.2149
20		C		6.3222		-1.5845		0.1736		C.ar		1		UNL1		0.1325
21		C		7.3628		-2.5537		-0.0082		C.1		1		UNL1		0.2367
22		N		8.2093		-3.3394		-0.1490		N.1		1		UNL1		-0.4752
23		C		6.2551		-0.8405		1.3873		C.ar		1		UNL1		-0.1424
24		C		5.2615		0.0895		1.5691		C.ar		1		UNL1		-0.1934
25		C		4.2863		0.3276		0.5625		C.ar		1		UNL1		0.1392
26		C		3.2483		1.2804		0.7300		C.ar		1		UNL1		-0.2386
27		N		-0.3409		0.9569		-0.0766		N.ar		1		UNL1		-0.5613
28		C		-3.2899		-2.5880		0.0151		C.ar		1		UNL1		-0.2052
29		C		-4.4732		-3.3069		0.0576		C.ar		1		UNL1		-0.1397
30		H		-6.6613		-0.7011		0.1524		H		1		UNL1		0.1636
31		H		-4.5482		0.5781		0.0770		H		1		UNL1		0.1993
32		H		-1.2458		-1.1645		-0.0592		H		1		UNL1		0.3522
33		H		-0.4394		4.3349		-0.0242		H		1		UNL1		0.1803
34		H		1.6480		0.9420		-2.2569		H		1		UNL1		0.1541
35		H		3.4381		-0.7403		-2.5972		H		1		UNL1		0.1507
36		H		5.4432		-1.9421		-1.7500		H		1		UNL1		0.1626
37		H		6.9967		-1.0196		2.1587		H		1		UNL1		0.1625
38		H		5.2106		0.6572		2.4943		H		1		UNL1		0.1495
39		H		3.1800		1.8625		1.6438		H		1		UNL1		0.1533
40		H		-2.3419		-3.1196		-0.0228		H		1		UNL1		0.1397
41		H		-4.4511		-4.3917		0.0527		H		1		UNL1		0.1617
@<TRIPOS>BOND
1		35		17		1
2		34		16		1
3		36		19		1
4		17		16		ar
5		17		18		ar
6		16		15		ar
7		19		18		ar
8		19		20		ar
9		18		25		ar
10		15		14		1
11		15		26		ar
12		22		21		3
13		14		13		1
14		27		13		ar
15		27		8		ar
16		13		12		ar
17		32		7		1
18		7		8		1
19		7		6		1
20		8		9		ar
21		33		12		1
22		12		10		ar
23		40		28		1
24		21		20		1
25		28		6		ar
26		28		29		ar
27		6		5		ar
28		10		9		ar
29		10		11		1
30		41		29		1
31		29		3		ar
32		5		31		1
33		5		4		ar
34		3		4		ar
35		3		2		1
36		4		30		1
37		2		1		3
38		20		23		ar
39		25		26		ar
40		25		24		ar
41		26		39		1
42		23		24		ar
43		23		37		1
44		24		38		1

