@<TRIPOS>MOLECULE
WHQ-2013-BMC-6477-3-7n
 56 58 0 0 0
SMALL
MULLIKEN_CHARGES
****
Gaussian 16 #p B3LYP/6-31G* opt
@<TRIPOS>ATOM
1		C		6.1949		3.2858		-2.0189		C.3		1		UNL1		-0.2161
2		O		6.6251		2.5221		-0.9029		O.3		1		UNL1		-0.5067
3		C		5.6841		1.8422		-0.1855		C.ar		1		UNL1		0.3776
4		C		4.3126		1.8447		-0.4633		C.ar		1		UNL1		-0.2004
5		C		3.4384		1.1115		0.3428		C.ar		1		UNL1		-0.2008
6		C		3.9091		0.3687		1.4313		C.ar		1		UNL1		0.1774
7		C		2.9681		-0.4129		2.3036		C.3		1		UNL1		-0.5269
8		S		2.7636		-2.2072		1.8262		S.3		1		UNL1		0.1417
9		C		1.5033		-2.0798		0.5833		C.ar		1		UNL1		0.3432
10		N		0.7908		-1.0051		0.4255		N.ar		1		UNL1		-0.5042
11		C		-0.1611		-1.0108		-0.5703		C.ar		1		UNL1		0.1353
12		C		-0.8255		0.3504		-0.7267		C.2		1		UNL1		0.3491
13		O		-0.1267		1.2906		-1.0792		O.2		1		UNL1		-0.4529
14		C		-2.2692		0.5171		-0.4124		C.ar		1		UNL1		0.0842
15		C		-3.0444		-0.5023		0.1620		C.ar		1		UNL1		-0.1738
16		C		-4.3831		-0.2821		0.4661		C.ar		1		UNL1		-0.1925
17		C		-5.0054		0.9527		0.2086		C.ar		1		UNL1		0.1896
18		C		-6.4907		1.1495		0.5574		C.3		1		UNL1		0.0121
19		C		-7.3412		0.1189		-0.2239		C.3		1		UNL1		-0.4406
20		C		-6.6919		0.9348		2.0770		C.3		1		UNL1		-0.4405
21		C		-6.9968		2.5599		0.1998		C.3		1		UNL1		-0.4591
22		C		-4.2171		1.9647		-0.3651		C.ar		1		UNL1		-0.1972
23		C		-2.8751		1.7557		-0.6657		C.ar		1		UNL1		-0.1588
24		C		-0.4220		-2.0750		-1.3946		C.ar		1		UNL1		0.0603
25		C		-1.4207		-2.1006		-2.5178		C.3		1		UNL1		-0.5135
26		C		0.3604		-3.2942		-1.2112		C.ar		1		UNL1		0.5816
27		O		0.2540		-4.3295		-1.8551		O.2		1		UNL1		-0.5142
28		N		1.3231		-3.1947		-0.1830		N.ar		1		UNL1		-0.6508
29		C		5.2887		0.3786		1.6963		C.ar		1		UNL1		-0.1766
30		C		6.1684		1.1021		0.9043		C.ar		1		UNL1		-0.1717
31		H		5.7144		2.6553		-2.7786		H		1		UNL1		0.1549
32		H		5.4996		4.0813		-1.7200		H		1		UNL1		0.1539
33		H		7.0967		3.7342		-2.4398		H		1		UNL1		0.1688
34		H		3.9103		2.4103		-1.2959		H		1		UNL1		0.1399
35		H		2.3778		1.1175		0.1088		H		1		UNL1		0.1819
36		H		1.9594		0.0022		2.3036		H		1		UNL1		0.2252
37		H		3.3265		-0.4763		3.3349		H		1		UNL1		0.1877
38		H		-2.5972		-1.4679		0.3774		H		1		UNL1		0.1463
39		H		-4.9529		-1.0908		0.9141		H		1		UNL1		0.1345
40		H		-7.2226		0.2508		-1.3054		H		1		UNL1		0.1505
41		H		-8.4032		0.2434		0.0192		H		1		UNL1		0.1439
42		H		-7.0626		-0.9114		0.0202		H		1		UNL1		0.1456
43		H		-7.7481		1.0670		2.3408		H		1		UNL1		0.1438
44		H		-6.3936		-0.0705		2.3916		H		1		UNL1		0.1455
45		H		-6.1042		1.6555		2.6567		H		1		UNL1		0.1510
46		H		-8.0561		2.6478		0.4651		H		1		UNL1		0.1457
47		H		-6.4547		3.3399		0.7464		H		1		UNL1		0.1487
48		H		-6.9076		2.7668		-0.8726		H		1		UNL1		0.1484
49		H		-4.6500		2.9346		-0.5816		H		1		UNL1		0.1367
50		H		-2.2733		2.5471		-1.1009		H		1		UNL1		0.1623
51		H		-1.9186		-1.1389		-2.6539		H		1		UNL1		0.1587
52		H		-2.1841		-2.8679		-2.3415		H		1		UNL1		0.1736
53		H		-0.9215		-2.3742		-3.4543		H		1		UNL1		0.1806
54		H		1.9151		-4.0110		-0.0639		H		1		UNL1		0.3563
55		H		5.6791		-0.1891		2.5386		H		1		UNL1		0.1236
56		H		7.2344		1.1151		1.1091		H		1		UNL1		0.1375
@<TRIPOS>BOND
1		53		25		1
2		31		1		1
3		51		25		1
4		25		52		1
5		25		24		1
6		33		1		1
7		1		32		1
8		1		2		1
9		27		26		2
10		24		26		ar
11		24		11		ar
12		40		19		1
13		34		4		1
14		26		28		ar
15		50		23		1
16		13		12		2
17		2		3		1
18		48		21		1
19		12		11		1
20		12		14		1
21		23		14		ar
22		23		22		ar
23		49		22		1
24		11		10		ar
25		4		3		ar
26		4		5		ar
27		14		15		ar
28		22		17		ar
29		19		41		1
30		19		42		1
31		19		18		1
32		3		30		ar
33		28		54		1
34		28		9		ar
35		35		5		1
36		15		38		1
37		15		16		ar
38		21		46		1
39		21		18		1
40		21		47		1
41		17		16		ar
42		17		18		1
43		5		6		ar
44		10		9		ar
45		16		39		1
46		18		20		1
47		9		8		1
48		30		56		1
49		30		29		ar
50		6		29		ar
51		6		7		1
52		29		55		1
53		8		7		1
54		20		43		1
55		20		44		1
56		20		45		1
57		7		36		1
58		7		37		1

