@<TRIPOS>MOLECULE
WHQ-2015-BMC-624-3-3h
 44 46 0 0 0
SMALL
MULLIKEN_CHARGES
****
Gaussian 16 #p B3LYP/6-31G* opt
@<TRIPOS>ATOM
1		C		-1.9033		3.9579		-0.0003		C.3		1		UNL1		-0.5145
2		C		-1.5118		2.5055		-0.0008		C.ar		1		UNL1		0.3453
3		C		-0.1846		2.1017		-0.0016		C.ar		1		UNL1		-0.2600
4		C		0.0388		0.7147		-0.0020		C.ar		1		UNL1		0.6131
5		O		1.3214		0.2909		-0.0029		O.3		1		UNL1		-0.5372
6		C		1.5651		-1.1246		-0.0031		C.3		1		UNL1		-0.1076
7		C		3.0657		-1.4164		-0.0024		C.2		1		UNL1		0.5756
8		O		3.4300		-2.5846		-0.0031		O.2		1		UNL1		-0.5038
9		N		3.8738		-0.3172		-0.0008		N.am		1		UNL1		-0.7221
10		C		5.2852		-0.2587		0.0002		C.ar		1		UNL1		0.3580
11		C		5.8774		1.0134		0.0002		C.ar		1		UNL1		-0.1951
12		C		7.2622		1.1545		0.0013		C.ar		1		UNL1		-0.2008
13		C		8.0507		0.0102		0.0024		C.ar		1		UNL1		0.3827
14		F		9.3951		0.1387		0.0036		F		1		UNL1		-0.2988
15		C		7.4878		-1.2596		0.0024		C.ar		1		UNL1		-0.2131
16		C		6.1006		-1.4012		0.0013		C.ar		1		UNL1		-0.1595
17		N		-0.9353		-0.1779		-0.0017		N.ar		1		UNL1		-0.5882
18		C		-2.1923		0.3283		-0.0009		C.ar		1		UNL1		0.7064
19		N		-3.1619		-0.6510		-0.0006		N.pl3		1		UNL1		-0.7709
20		C		-4.5572		-0.5935		0.0001		C.ar		1		UNL1		0.3817
21		C		-5.3034		0.5993		0.0008		C.ar		1		UNL1		-0.1586
22		C		-6.6917		0.5442		0.0015		C.ar		1		UNL1		-0.1535
23		C		-7.3718		-0.6846		0.0015		C.ar		1		UNL1		0.1320
24		C		-8.8022		-0.7257		0.0022		C.1		1		UNL1		0.2280
25		N		-9.9658		-0.7597		0.0028		N.1		1		UNL1		-0.4834
26		C		-6.6237		-1.8752		0.0008		C.ar		1		UNL1		-0.1403
27		C		-5.2396		-1.8269		0.0002		C.ar		1		UNL1		-0.2059
28		N		-2.5293		1.6167		-0.0004		N.ar		1		UNL1		-0.5420
29		H		-2.5154		4.1823		-0.8809		H		1		UNL1		0.1820
30		H		-2.5148		4.1819		0.8810		H		1		UNL1		0.1820
31		H		-1.0295		4.6147		-0.0004		H		1		UNL1		0.1596
32		H		0.6407		2.8026		-0.0019		H		1		UNL1		0.1442
33		H		1.1171		-1.5895		0.8799		H		1		UNL1		0.1953
34		H		1.1180		-1.5892		-0.8867		H		1		UNL1		0.1953
35		H		3.3879		0.5708		-0.0005		H		1		UNL1		0.3551
36		H		5.2502		1.9022		-0.0007		H		1		UNL1		0.1318
37		H		7.7301		2.1332		0.0014		H		1		UNL1		0.1496
38		H		8.1346		-2.1308		0.0033		H		1		UNL1		0.1531
39		H		5.6443		-2.3811		0.0012		H		1		UNL1		0.1951
40		H		-2.7583		-1.5790		-0.0010		H		1		UNL1		0.3470
41		H		-4.7857		1.5473		0.0008		H		1		UNL1		0.1867
42		H		-7.2619		1.4679		0.0020		H		1		UNL1		0.1583
43		H		-7.1343		-2.8327		0.0009		H		1		UNL1		0.1595
44		H		-4.6718		-2.7545		-0.0003		H		1		UNL1		0.1382
@<TRIPOS>BOND
1		34		6		1
2		29		1		1
3		8		7		2
4		6		5		1
5		6		7		1
6		6		33		1
7		5		4		1
8		7		9		1
9		4		17		ar
10		4		3		ar
11		32		3		1
12		17		18		ar
13		3		2		ar
14		40		19		1
15		18		19		1
16		18		28		ar
17		9		35		1
18		9		10		1
19		2		28		ar
20		2		1		1
21		36		11		1
22		19		20		1
23		31		1		1
24		44		27		1
25		1		30		1
26		20		27		ar
27		20		21		ar
28		27		26		ar
29		11		10		ar
30		11		12		ar
31		10		16		ar
32		41		21		1
33		21		22		ar
34		26		43		1
35		26		23		ar
36		39		16		1
37		16		15		ar
38		12		37		1
39		12		13		ar
40		22		23		ar
41		22		42		1
42		23		24		1
43		24		25		3
44		15		13		ar
45		15		38		1
46		13		14		1

