@<TRIPOS>MOLECULE
WHQ-2014-MCC-5468-3-1r
 46 48 0 0 0
SMALL
MULLIKEN_CHARGES
****
Gaussian 16 #p B3LYP/6-31G* opt
@<TRIPOS>ATOM
1		C		-7.5375		2.2730		0.9349		C.3		1		UNL1		-0.2152
2		O		-6.2671		1.9417		1.4713		O.3		1		UNL1		-0.5030
3		C		-5.2358		1.7215		0.6060		C.ar		1		UNL1		0.3772
4		C		-5.3366		1.8044		-0.7892		C.ar		1		UNL1		-0.1945
5		C		-4.2098		1.5583		-1.5750		C.ar		1		UNL1		-0.1816
6		C		-2.9774		1.2284		-1.0030		C.ar		1		UNL1		0.1837
7		C		-1.7702		0.9682		-1.8584		C.3		1		UNL1		-0.5398
8		S		-1.7211		-0.7300		-2.6357		S.3		1		UNL1		0.1472
9		C		-0.9545		-1.6943		-1.3622		C.ar		1		UNL1		0.3415
10		N		-0.2995		-1.1624		-0.3728		N.ar		1		UNL1		-0.5130
11		C		0.2733		-2.0108		0.5412		C.ar		1		UNL1		0.2579
12		C		1.0242		-1.2829		1.6681		C.3		1		UNL1		-0.3206
13		C		0.0705		-0.5632		2.5312		C.1		1		UNL1		0.3914
14		N		-0.6909		-0.0425		3.2353		N.1		1		UNL1		-0.4788
15		C		2.1532		-0.4028		1.1353		C.ar		1		UNL1		0.1043
16		C		3.4555		-0.9143		1.0787		C.ar		1		UNL1		-0.1816
17		C		4.5197		-0.1747		0.5663		C.ar		1		UNL1		-0.1441
18		C		4.2780		1.1168		0.1024		C.ar		1		UNL1		0.0839
19		BR		5.7174		2.1532		-0.5984		Br		1		UNL1		-0.1066
20		C		3.0005		1.6675		0.1444		C.ar		1		UNL1		-0.2177
21		C		1.9639		0.8963		0.6571		C.ar		1		UNL1		0.3713
22		F		0.7387		1.4557		0.6954		F		1		UNL1		-0.2760
23		C		0.2232		-3.3799		0.4840		C.ar		1		UNL1		0.0565
24		C		0.8348		-4.3286		1.4845		C.3		1		UNL1		-0.5553
25		C		-0.4948		-3.9891		-0.6354		C.ar		1		UNL1		0.5834
26		O		-0.6389		-5.1848		-0.8516		O.2		1		UNL1		-0.5168
27		N		-1.0686		-3.0447		-1.5134		N.ar		1		UNL1		-0.6498
28		C		-2.8931		1.1542		0.3972		C.ar		1		UNL1		-0.1939
29		C		-4.0043		1.3970		1.1933		C.ar		1		UNL1		-0.1792
30		H		-7.5034		3.2098		0.3627		H		1		UNL1		0.1514
31		H		-7.9262		1.4724		0.2915		H		1		UNL1		0.1520
32		H		-8.2007		2.3993		1.7926		H		1		UNL1		0.1714
33		H		-6.2745		2.0604		-1.2686		H		1		UNL1		0.1314
34		H		-4.3016		1.6253		-2.6573		H		1		UNL1		0.1235
35		H		-0.8389		1.0712		-1.3000		H		1		UNL1		0.2287
36		H		-1.7346		1.6269		-2.7310		H		1		UNL1		0.1903
37		H		1.4891		-2.0393		2.3069		H		1		UNL1		0.2028
38		H		3.6434		-1.9201		1.4454		H		1		UNL1		0.1515
39		H		5.5192		-0.5924		0.5333		H		1		UNL1		0.1631
40		H		2.7970		2.6722		-0.2058		H		1		UNL1		0.1759
41		H		0.4872		-4.1335		2.5056		H		1		UNL1		0.1714
42		H		0.5521		-5.3491		1.2185		H		1		UNL1		0.2070
43		H		1.9311		-4.2782		1.4865		H		1		UNL1		0.1609
44		H		-1.6104		-3.4393		-2.2761		H		1		UNL1		0.3596
45		H		-1.9467		0.9116		0.8688		H		1		UNL1		0.1726
46		H		-3.9368		1.3417		2.2751		H		1		UNL1		0.1555
@<TRIPOS>BOND
1		36		7		1
2		34		5		1
3		8		7		1
4		8		9		1
5		44		27		1
6		7		35		1
7		7		6		1
8		5		6		ar
9		5		4		ar
10		27		9		ar
11		27		25		ar
12		9		10		ar
13		33		4		1
14		6		28		ar
15		26		25		2
16		4		3		ar
17		25		23		ar
18		19		18		1
19		10		11		ar
20		40		20		1
21		18		20		ar
22		18		17		ar
23		20		21		ar
24		31		1		1
25		30		1		1
26		28		45		1
27		28		29		ar
28		23		11		ar
29		23		24		1
30		39		17		1
31		11		12		1
32		17		16		ar
33		3		29		ar
34		3		2		1
35		21		22		1
36		21		15		ar
37		1		2		1
38		1		32		1
39		16		15		ar
40		16		38		1
41		15		12		1
42		29		46		1
43		42		24		1
44		24		43		1
45		24		41		1
46		12		37		1
47		12		13		1
48		13		14		3

