@<TRIPOS>MOLECULE
WHQ-2014-SQER-761-8
 43 46 0 0 0
SMALL
MULLIKEN_CHARGES
****
Gaussian 16 #p B3LYP/6-31G* opt
@<TRIPOS>ATOM
1		C		3.1535		4.4504		0.5343		C.3		1		UNL1		-0.5143
2		C		2.1966		3.2905		0.4856		C.ar		1		UNL1		0.3437
3		C		0.8235		3.4657		0.5871		C.ar		1		UNL1		-0.2572
4		C		0.0481		2.2969		0.5293		C.ar		1		UNL1		0.5769
5		O		-1.2988		2.4524		0.6228		O.3		1		UNL1		-0.5730
6		C		-2.1268		1.3270		0.6133		C.ar		1		UNL1		0.2985
7		C		-2.3721		0.6564		1.7842		C.ar		1		UNL1		-0.1530
8		C		-3.2728		-0.4309		1.7930		C.ar		1		UNL1		-0.1798
9		C		-3.9037		-0.8107		0.6321		C.ar		1		UNL1		0.0349
10		BR		-5.1108		-2.2964		0.7142		Br		1		UNL1		-0.1232
11		C		-3.6853		-0.1335		-0.6025		C.ar		1		UNL1		0.0892
12		C		-4.3197		-0.4852		-1.8234		C.ar		1		UNL1		-0.1913
13		C		-4.0657		0.2156		-2.9804		C.ar		1		UNL1		-0.1294
14		C		-3.1664		1.3072		-2.9772		C.ar		1		UNL1		-0.1307
15		C		-2.5321		1.6777		-1.8141		C.ar		1		UNL1		-0.1871
16		C		-2.7669		0.9724		-0.6048		C.ar		1		UNL1		0.1186
17		N		0.5603		1.0900		0.3862		N.ar		1		UNL1		-0.5624
18		C		1.9093		1.0368		0.2952		C.ar		1		UNL1		0.7005
19		N		2.3816		-0.2503		0.1440		N.pl3		1		UNL1		-0.7728
20		C		3.6695		-0.7701		0.0115		C.ar		1		UNL1		0.3822
21		C		4.8439		0.0053		0.0151		C.ar		1		UNL1		-0.1593
22		C		6.0799		-0.6137		-0.1228		C.ar		1		UNL1		-0.1538
23		C		6.1850		-2.0069		-0.2669		C.ar		1		UNL1		0.1312
24		C		7.4650		-2.6307		-0.4079		C.1		1		UNL1		0.2270
25		N		8.5061		-3.1388		-0.5227		N.1		1		UNL1		-0.4852
26		C		5.0101		-2.7798		-0.2704		C.ar		1		UNL1		-0.1407
27		C		3.7750		-2.1687		-0.1333		C.ar		1		UNL1		-0.2059
28		N		2.7523		2.0682		0.3379		N.ar		1		UNL1		-0.5422
29		H		2.6312		5.4033		0.6531		H		1		UNL1		0.1601
30		H		3.8546		4.3246		1.3670		H		1		UNL1		0.1805
31		H		3.7497		4.4850		-0.3844		H		1		UNL1		0.1803
32		H		0.3613		4.4373		0.7077		H		1		UNL1		0.1524
33		H		-1.8734		0.9626		2.6976		H		1		UNL1		0.1503
34		H		-3.4660		-0.9640		2.7169		H		1		UNL1		0.1603
35		H		-5.0126		-1.3190		-1.8270		H		1		UNL1		0.1596
36		H		-4.5625		-0.0704		-3.9032		H		1		UNL1		0.1400
37		H		-2.9786		1.8549		-3.8963		H		1		UNL1		0.1390
38		H		-1.8488		2.5197		-1.8014		H		1		UNL1		0.1467
39		H		1.6267		-0.9244		0.1243		H		1		UNL1		0.3496
40		H		4.7689		1.0773		0.1254		H		1		UNL1		0.1863
41		H		6.9820		-0.0098		-0.1192		H		1		UNL1		0.1570
42		H		5.0743		-3.8574		-0.3809		H		1		UNL1		0.1580
43		H		2.8733		-2.7768		-0.1377		H		1		UNL1		0.1383
@<TRIPOS>BOND
1		36		13		1
2		37		14		1
3		13		14		ar
4		13		12		ar
5		14		15		ar
6		35		12		1
7		12		11		ar
8		15		38		1
9		15		16		ar
10		16		11		ar
11		16		6		ar
12		11		9		ar
13		25		24		3
14		24		23		1
15		31		1		1
16		42		26		1
17		26		23		ar
18		26		27		ar
19		23		22		ar
20		43		27		1
21		27		20		ar
22		22		41		1
23		22		21		ar
24		20		21		ar
25		20		19		1
26		21		40		1
27		39		19		1
28		19		18		1
29		18		28		ar
30		18		17		ar
31		28		2		ar
32		17		4		ar
33		2		1		1
34		2		3		ar
35		4		3		ar
36		4		5		1
37		1		29		1
38		1		30		1
39		3		32		1
40		6		5		1
41		6		7		ar
42		9		10		1
43		9		8		ar
44		7		8		ar
45		7		33		1
46		8		34		1

