@<TRIPOS>MOLECULE
WHQ-2014-MCC-5468-3-1f
 46 48 0 0 0
SMALL
MULLIKEN_CHARGES
****
Gaussian 16 #p B3LYP/6-31G* opt
@<TRIPOS>ATOM
1		C		6.3637		3.2460		1.3987		C.3		1		UNL1		-0.2168
2		O		6.6785		2.0051		0.7856		O.3		1		UNL1		-0.5060
3		C		5.6738		1.3159		0.1724		C.ar		1		UNL1		0.3773
4		C		6.0469		0.0984		-0.4207		C.ar		1		UNL1		-0.1716
5		C		5.0985		-0.6754		-1.0717		C.ar		1		UNL1		-0.1743
6		C		3.7561		-0.2665		-1.1500		C.ar		1		UNL1		0.1822
7		C		2.7335		-1.1000		-1.8694		C.3		1		UNL1		-0.5380
8		S		2.2355		-2.6604		-0.9747		S.3		1		UNL1		0.1458
9		C		0.8801		-2.1014		0.0244		C.ar		1		UNL1		0.3356
10		N		0.2050		-1.0203		-0.2357		N.ar		1		UNL1		-0.5191
11		C		-0.8623		-0.7133		0.5801		C.ar		1		UNL1		0.2508
12		C		-1.5878		0.5824		0.1933		C.3		1		UNL1		-0.3430
13		C		-0.6406		1.5871		-0.3189		C.1		1		UNL1		0.4086
14		N		0.0802		2.4089		-0.7092		N.1		1		UNL1		-0.4902
15		C		-2.7128		0.3468		-0.8249		C.ar		1		UNL1		0.1461
16		C		-2.4393		-0.3432		-2.0151		C.ar		1		UNL1		-0.1684
17		C		-3.4332		-0.5786		-2.9609		C.ar		1		UNL1		-0.1236
18		C		-4.7326		-0.1231		-2.7333		C.ar		1		UNL1		-0.1233
19		C		-5.0295		0.5706		-1.5625		C.ar		1		UNL1		-0.1457
20		C		-4.0220		0.8032		-0.6259		C.ar		1		UNL1		0.0259
21		BR		-4.5085		1.7814		0.9533		Br		1		UNL1		-0.1102
22		C		-1.2880		-1.4929		1.6256		C.ar		1		UNL1		0.0501
23		C		-2.4606		-1.2319		2.5307		C.3		1		UNL1		-0.5328
24		C		-0.5298		-2.7034		1.9318		C.ar		1		UNL1		0.5840
25		O		-0.7544		-3.4905		2.8410		O.2		1		UNL1		-0.5123
26		N		0.5638		-2.9204		1.0659		N.ar		1		UNL1		-0.6478
27		C		3.3977		0.9468		-0.5573		C.ar		1		UNL1		-0.2041
28		C		4.3431		1.7399		0.0994		C.ar		1		UNL1		-0.2032
29		H		7.2997		3.6170		1.8202		H		1		UNL1		0.1698
30		H		5.9815		3.9713		0.6686		H		1		UNL1		0.1558
31		H		5.6268		3.1230		2.2033		H		1		UNL1		0.1543
32		H		7.0853		-0.2120		-0.3595		H		1		UNL1		0.1389
33		H		5.4040		-1.6155		-1.5267		H		1		UNL1		0.1258
34		H		1.8081		-0.5511		-2.0509		H		1		UNL1		0.2284
35		H		3.1091		-1.4809		-2.8239		H		1		UNL1		0.1926
36		H		-2.0295		1.0188		1.0920		H		1		UNL1		0.2156
37		H		-1.4269		-0.6954		-2.1864		H		1		UNL1		0.1727
38		H		-3.1924		-1.1160		-3.8733		H		1		UNL1		0.1461
39		H		-5.5167		-0.3022		-3.4633		H		1		UNL1		0.1478
40		H		-6.0327		0.9347		-1.3710		H		1		UNL1		0.1609
41		H		-3.0094		-2.1652		2.6918		H		1		UNL1		0.1869
42		H		-3.1546		-0.4857		2.1414		H		1		UNL1		0.1681
43		H		-2.1202		-0.9040		3.5217		H		1		UNL1		0.1767
44		H		1.1344		-3.7320		1.2819		H		1		UNL1		0.3594
45		H		2.3705		1.2955		-0.6135		H		1		UNL1		0.1839
46		H		4.0277		2.6789		0.5392		H		1		UNL1		0.1405
@<TRIPOS>BOND
1		38		17		1
2		39		18		1
3		17		18		ar
4		17		16		ar
5		35		7		1
6		18		19		ar
7		37		16		1
8		34		7		1
9		16		15		ar
10		7		6		1
11		7		8		1
12		19		40		1
13		19		20		ar
14		33		5		1
15		6		5		ar
16		6		27		ar
17		5		4		ar
18		8		9		1
19		15		20		ar
20		15		12		1
21		14		13		3
22		20		21		1
23		45		27		1
24		27		28		ar
25		4		32		1
26		4		3		ar
27		13		12		1
28		10		9		ar
29		10		11		ar
30		9		26		ar
31		28		3		ar
32		28		46		1
33		3		2		1
34		12		11		1
35		12		36		1
36		11		22		ar
37		30		1		1
38		2		1		1
39		26		44		1
40		26		24		ar
41		1		29		1
42		1		31		1
43		22		24		ar
44		22		23		1
45		24		25		2
46		42		23		1
47		23		41		1
48		23		43		1

