@<TRIPOS>MOLECULE
WYP-2008-CB-168-6E
 44 46 0 0 0
SMALL
MULLIKEN_CHARGES
****
Gaussian 16 #p B3LYP/6-31G* opt
@<TRIPOS>ATOM
1		C		-1.1456		3.8038		0.9393		C.3		1		UNL1		-0.4430
2		C		-0.8628		2.8340		-0.2224		C.3		1		UNL1		-0.3299
3		C		-1.5528		1.4990		-0.0670		C.ar		1		UNL1		0.0341
4		C		-0.9694		0.3512		0.4262		C.ar		1		UNL1		0.2216
5		C		0.4716		0.3102		0.8925		C.3		1		UNL1		-0.4235
6		C		1.5057		-0.0525		-0.1689		C.ar		1		UNL1		0.1280
7		C		1.1580		-0.2552		-1.4886		C.ar		1		UNL1		-0.1939
8		C		2.1232		-0.5903		-2.4689		C.ar		1		UNL1		-0.1356
9		C		3.4456		-0.7231		-2.1250		C.ar		1		UNL1		-0.1911
10		C		3.8596		-0.5248		-0.7803		C.ar		1		UNL1		0.1374
11		C		5.2222		-0.6553		-0.4012		C.ar		1		UNL1		-0.1944
12		C		5.6204		-0.4617		0.9020		C.ar		1		UNL1		-0.1332
13		C		4.6630		-0.1271		1.8869		C.ar		1		UNL1		-0.1339
14		C		3.3327		0.0066		1.5515		C.ar		1		UNL1		-0.1964
15		C		2.8833		-0.1856		0.2156		C.ar		1		UNL1		0.0711
16		N		-1.6123		-0.8539		0.5527		N.ar		1		UNL1		-0.5850
17		C		-2.8737		-0.9253		0.1899		C.ar		1		UNL1		0.7934
18		N		-3.5536		-2.1129		0.2609		N.pl3		1		UNL1		-0.4571
19		C		-2.9328		-3.2583		0.9180		C.3		1		UNL1		-0.3205
20		C		-4.9792		-2.1824		-0.0142		C.3		1		UNL1		-0.3402
21		N		-3.5427		0.1721		-0.2806		N.ar		1		UNL1		-0.7141
22		C		-2.9508		1.4487		-0.4424		C.ar		1		UNL1		0.5727
23		O		-3.6443		2.3687		-0.8691		O.2		1		UNL1		-0.5419
24		H		-0.7883		3.3997		1.8942		H		1		UNL1		0.1352
25		H		-2.2211		3.9864		1.0269		H		1		UNL1		0.1674
26		H		-0.6490		4.7668		0.7720		H		1		UNL1		0.1404
27		H		0.2164		2.6915		-0.3397		H		1		UNL1		0.1426
28		H		-1.2231		3.2929		-1.1502		H		1		UNL1		0.1629
29		H		0.5175		-0.4319		1.6982		H		1		UNL1		0.1730
30		H		0.7418		1.2738		1.3406		H		1		UNL1		0.1660
31		H		0.1201		-0.1550		-1.7889		H		1		UNL1		0.1329
32		H		1.8055		-0.7406		-3.4973		H		1		UNL1		0.1279
33		H		4.1930		-0.9795		-2.8722		H		1		UNL1		0.1260
34		H		5.9506		-0.9127		-1.1670		H		1		UNL1		0.1280
35		H		6.6668		-0.5646		1.1766		H		1		UNL1		0.1281
36		H		4.9791		0.0256		2.9155		H		1		UNL1		0.1275
37		H		2.6166		0.2636		2.3250		H		1		UNL1		0.1317
38		H		-3.3021		-3.3814		1.9461		H		1		UNL1		0.1559
39		H		-3.1573		-4.1684		0.3518		H		1		UNL1		0.1556
40		H		-1.8564		-3.1012		0.9467		H		1		UNL1		0.2174
41		H		-5.2146		-1.7987		-1.0147		H		1		UNL1		0.1711
42		H		-5.5847		-1.6384		0.7269		H		1		UNL1		0.1685
43		H		-5.2840		-3.2303		0.0077		H		1		UNL1		0.1788
44		H		-4.5223		0.1430		-0.5333		H		1		UNL1		0.3387
@<TRIPOS>BOND
1		32		8		1
2		33		9		1
3		8		9		ar
4		8		7		ar
5		9		10		ar
6		31		7		1
7		7		6		ar
8		34		11		1
9		28		2		1
10		41		20		1
11		23		22		2
12		10		11		ar
13		10		15		ar
14		44		21		1
15		22		21		ar
16		22		3		ar
17		11		12		ar
18		27		2		1
19		21		17		ar
20		2		3		1
21		2		1		1
22		6		15		ar
23		6		5		1
24		3		4		ar
25		20		43		1
26		20		18		1
27		20		42		1
28		17		18		1
29		17		16		ar
30		15		14		ar
31		18		19		1
32		39		19		1
33		4		16		ar
34		4		5		1
35		26		1		1
36		5		30		1
37		5		29		1
38		12		35		1
39		12		13		ar
40		19		40		1
41		19		38		1
42		1		25		1
43		1		24		1
44		14		13		ar
45		14		37		1
46		13		36		1

