@<TRIPOS>MOLECULE
WYP-2008-CB-168-6R
 45 48 0 0 0
SMALL
MULLIKEN_CHARGES
****
Gaussian 16 #p B3LYP/6-31G* opt
@<TRIPOS>ATOM
1		C		-0.7948		3.4340		-0.0501		C.3		1		UNL1		-0.5389
2		C		0.2475		2.3473		-0.0097		C.ar		1		UNL1		0.0499
3		C		0.1546		1.1859		0.7290		C.ar		1		UNL1		0.2715
4		C		-1.0558		0.8837		1.6072		C.3		1		UNL1		-0.4450
5		C		-2.3385		0.4885		0.8822		C.ar		1		UNL1		0.1361
6		C		-3.4125		1.3585		0.8845		C.ar		1		UNL1		-0.2098
7		C		-4.6368		1.0416		0.2506		C.ar		1		UNL1		-0.1301
8		C		-4.7902		-0.1657		-0.3856		C.ar		1		UNL1		-0.1932
9		C		-3.7274		-1.1078		-0.4036		C.ar		1		UNL1		0.1439
10		C		-3.8776		-2.3709		-1.0362		C.ar		1		UNL1		-0.1978
11		C		-2.8543		-3.2906		-1.0384		C.ar		1		UNL1		-0.1313
12		C		-1.6296		-2.9798		-0.4035		C.ar		1		UNL1		-0.1441
13		C		-1.4466		-1.7617		0.2147		C.ar		1		UNL1		-0.2064
14		C		-2.4817		-0.7854		0.2356		C.ar		1		UNL1		0.0656
15		N		1.1318		0.2226		0.7855		N.ar		1		UNL1		-0.6021
16		C		2.2187		0.4070		0.0654		C.ar		1		UNL1		0.7910
17		N		3.2143		-0.5173		0.0892		N.pl3		1		UNL1		-0.5033
18		C		3.1000		-1.7579		0.8676		C.3		1		UNL1		-0.0987
19		C		4.3043		-2.5792		0.3859		C.3		1		UNL1		-0.3032
20		C		5.3507		-1.5090		0.0327		C.3		1		UNL1		-0.2995
21		C		4.5101		-0.3752		-0.5785		C.3		1		UNL1		-0.1348
22		N		2.3856		1.5170		-0.7156		N.ar		1		UNL1		-0.7117
23		C		1.4366		2.5624		-0.8121		C.ar		1		UNL1		0.5675
24		O		1.6929		3.5217		-1.5349		O.2		1		UNL1		-0.5422
25		H		-1.1316		3.7170		0.9549		H		1		UNL1		0.1418
26		H		-1.6843		3.1329		-0.6161		H		1		UNL1		0.1697
27		H		-0.3703		4.3166		-0.5340		H		1		UNL1		0.1854
28		H		-1.2763		1.7699		2.2136		H		1		UNL1		0.1577
29		H		-0.7561		0.0912		2.3006		H		1		UNL1		0.1697
30		H		-3.3175		2.3153		1.3915		H		1		UNL1		0.1243
31		H		-5.4521		1.7597		0.2741		H		1		UNL1		0.1281
32		H		-5.7264		-0.4214		-0.8763		H		1		UNL1		0.1266
33		H		-4.8256		-2.5996		-1.5181		H		1		UNL1		0.1264
34		H		-2.9847		-4.2542		-1.5240		H		1		UNL1		0.1251
35		H		-0.8243		-3.7103		-0.4051		H		1		UNL1		0.1179
36		H		-0.4947		-1.5313		0.6806		H		1		UNL1		0.1734
37		H		3.1496		-1.5416		1.9432		H		1		UNL1		0.1589
38		H		2.1388		-2.2407		0.6747		H		1		UNL1		0.1770
39		H		4.0337		-3.1526		-0.5087		H		1		UNL1		0.1558
40		H		4.6546		-3.2860		1.1435		H		1		UNL1		0.1563
41		H		5.8468		-1.1512		0.9422		H		1		UNL1		0.1593
42		H		6.1240		-1.8655		-0.6535		H		1		UNL1		0.1572
43		H		4.4089		-0.4942		-1.6684		H		1		UNL1		0.1576
44		H		4.9527		0.6108		-0.3862		H		1		UNL1		0.1586
45		H		3.2092		1.6505		-1.2893		H		1		UNL1		0.3399
@<TRIPOS>BOND
1		43		21		1
2		24		23		2
3		34		11		1
4		33		10		1
5		45		22		1
6		11		10		ar
7		11		12		ar
8		10		9		ar
9		32		8		1
10		23		22		ar
11		23		2		ar
12		22		16		ar
13		42		20		1
14		26		1		1
15		21		44		1
16		21		20		1
17		21		17		1
18		27		1		1
19		39		19		1
20		35		12		1
21		9		8		ar
22		9		14		ar
23		12		13		ar
24		8		7		ar
25		1		2		1
26		1		25		1
27		2		3		ar
28		20		19		1
29		20		41		1
30		16		17		1
31		16		15		ar
32		17		18		1
33		13		14		ar
34		13		36		1
35		14		5		ar
36		7		31		1
37		7		6		ar
38		19		18		1
39		19		40		1
40		38		18		1
41		3		15		ar
42		3		4		1
43		18		37		1
44		5		6		ar
45		5		4		1
46		6		30		1
47		4		28		1
48		4		29		1

