@<TRIPOS>MOLECULE
WYP-2008-BMC-3887-5H
 57 60 0 0 0
SMALL
MULLIKEN_CHARGES
****
Gaussian 16 #p B3LYP/6-31G* opt
@<TRIPOS>ATOM
1		C		9.0462		-0.3275		-0.1601		C.3		1		UNL1		-0.2215
2		O		8.1465		0.7577		0.0290		O.3		1		UNL1		-0.4971
3		C		6.8277		0.5619		-0.2208		C.ar		1		UNL1		0.3888
4		C		6.2715		-0.6459		-0.6645		C.ar		1		UNL1		-0.2005
5		C		4.8981		-0.7278		-0.8892		C.ar		1		UNL1		-0.1872
6		C		4.0569		0.3732		-0.6793		C.ar		1		UNL1		0.0841
7		C		2.5885		0.3447		-0.9077		C.2		1		UNL1		0.4197
8		O		1.8965		1.3381		-0.7292		O.2		1		UNL1		-0.4510
9		C		1.9207		-0.9494		-1.3820		C.3		1		UNL1		-0.5455
10		S		1.7112		-2.1673		-0.0160		S.3		1		UNL1		0.1524
11		C		0.0720		-1.7316		0.5538		C.ar		1		UNL1		0.3404
12		N		-0.7345		-1.0133		-0.1555		N.ar		1		UNL1		-0.5116
13		C		-1.9763		-0.6920		0.3683		C.ar		1		UNL1		0.2370
14		C		-2.7394		0.2789		-0.5409		C.3		1		UNL1		-0.3122
15		C		-2.8071		1.6621		0.1276		C.ar		1		UNL1		0.1495
16		C		-1.6285		2.4242		0.1755		C.ar		1		UNL1		-0.1998
17		C		-1.6127		3.6740		0.7932		C.ar		1		UNL1		-0.1339
18		C		-2.7752		4.1881		1.3718		C.ar		1		UNL1		-0.1284
19		C		-3.9513		3.4397		1.3275		C.ar		1		UNL1		-0.1356
20		C		-3.9666		2.1855		0.7120		C.ar		1		UNL1		-0.1865
21		C		-4.0452		-0.2425		-1.1507		C.ar		1		UNL1		0.1449
22		C		-4.4528		-1.5777		-1.0422		C.ar		1		UNL1		-0.1826
23		C		-5.5988		-2.0368		-1.6970		C.ar		1		UNL1		-0.1348
24		C		-6.3573		-1.1696		-2.4811		C.ar		1		UNL1		-0.1279
25		C		-5.9552		0.1617		-2.6098		C.ar		1		UNL1		-0.1348
26		C		-4.8122		0.6168		-1.9550		C.ar		1		UNL1		-0.1757
27		C		-2.4078		-1.1499		1.5919		C.ar		1		UNL1		0.0528
28		C		-3.7221		-0.8222		2.2461		C.3		1		UNL1		-0.5296
29		C		-1.5169		-1.9943		2.3836		C.ar		1		UNL1		0.5757
30		O		-1.7474		-2.4766		3.4853		O.2		1		UNL1		-0.5209
31		N		-0.2623		-2.2291		1.7734		N.ar		1		UNL1		-0.6509
32		C		4.6361		1.5786		-0.2325		C.ar		1		UNL1		-0.1612
33		C		5.9957		1.6766		-0.0065		C.ar		1		UNL1		-0.1710
34		H		9.0510		-0.6665		-1.2037		H		1		UNL1		0.1588
35		H		10.0334		0.0571		0.1002		H		1		UNL1		0.1788
36		H		8.7992		-1.1713		0.4963		H		1		UNL1		0.1598
37		H		6.8922		-1.5175		-0.8355		H		1		UNL1		0.1404
38		H		4.4942		-1.6761		-1.2305		H		1		UNL1		0.1366
39		H		0.9170		-0.7140		-1.7400		H		1		UNL1		0.2481
40		H		2.4881		-1.4609		-2.1629		H		1		UNL1		0.1955
41		H		-2.0582		0.4018		-1.3908		H		1		UNL1		0.1876
42		H		-0.7147		2.0313		-0.2655		H		1		UNL1		0.1724
43		H		-0.6897		4.2474		0.8175		H		1		UNL1		0.1320
44		H		-2.7649		5.1642		1.8498		H		1		UNL1		0.1259
45		H		-4.8638		3.8295		1.7716		H		1		UNL1		0.1273
46		H		-4.8931		1.6212		0.6751		H		1		UNL1		0.1382
47		H		-3.8707		-2.2716		-0.4439		H		1		UNL1		0.1331
48		H		-5.8937		-3.0776		-1.5913		H		1		UNL1		0.1296
49		H		-7.2493		-1.5257		-2.9895		H		1		UNL1		0.1276
50		H		-6.5312		0.8492		-3.2240		H		1		UNL1		0.1294
51		H		-4.5087		1.6539		-2.0679		H		1		UNL1		0.1394
52		H		-3.6287		0.0643		2.8864		H		1		UNL1		0.1780
53		H		-4.5100		-0.6284		1.5176		H		1		UNL1		0.1646
54		H		-4.0239		-1.6532		2.8894		H		1		UNL1		0.1801
55		H		0.3987		-2.7595		2.3323		H		1		UNL1		0.3534
56		H		3.9845		2.4307		-0.0700		H		1		UNL1		0.1681
57		H		6.4491		2.6008		0.3374		H		1		UNL1		0.1500
@<TRIPOS>BOND
1		50		25		1
2		49		24		1
3		25		24		ar
4		25		26		ar
5		24		23		ar
6		40		9		1
7		51		26		1
8		26		21		ar
9		39		9		1
10		23		48		1
11		23		22		ar
12		41		14		1
13		9		7		1
14		9		10		1
15		38		5		1
16		34		1		1
17		21		22		ar
18		21		14		1
19		22		47		1
20		7		8		2
21		7		6		1
22		5		6		ar
23		5		4		ar
24		37		4		1
25		6		32		ar
26		4		3		ar
27		14		15		1
28		14		13		1
29		42		16		1
30		32		56		1
31		32		33		ar
32		3		33		ar
33		3		2		1
34		1		2		1
35		1		35		1
36		1		36		1
37		12		13		ar
38		12		11		ar
39		10		11		1
40		33		57		1
41		15		16		ar
42		15		20		ar
43		16		17		ar
44		13		27		ar
45		11		31		ar
46		46		20		1
47		20		19		ar
48		17		43		1
49		17		18		ar
50		19		18		ar
51		19		45		1
52		18		44		1
53		53		28		1
54		27		28		1
55		27		29		ar
56		31		55		1
57		31		29		ar
58		28		52		1
59		28		54		1
60		29		30		2

