@<TRIPOS>MOLECULE
WYP-2008-BMC-3887-5K
 60 63 0 0 0
SMALL
MULLIKEN_CHARGES
****
Gaussian 16 #p B3LYP/6-31G* opt
@<TRIPOS>ATOM
1		C		2.2528		5.9822		-0.8840		C.3		1		UNL1		-0.4441
2		C		2.6038		4.8289		0.0739		C.3		1		UNL1		-0.3342
3		C		1.4720		3.8436		0.2514		C.ar		1		UNL1		0.0231
4		C		1.3119		2.6597		-0.4277		C.ar		1		UNL1		0.2575
5		C		2.2746		2.1439		-1.4819		C.3		1		UNL1		-0.4239
6		C		2.9645		0.8539		-1.0695		C.ar		1		UNL1		0.1899
7		C		2.5798		-0.3772		-1.6110		C.ar		1		UNL1		-0.1896
8		C		3.2106		-1.5593		-1.2276		C.ar		1		UNL1		-0.1766
9		C		4.2517		-1.5539		-0.2856		C.ar		1		UNL1		0.0888
10		C		4.9269		-2.8121		0.1223		C.ar		1		UNL1		0.0893
11		C		5.3320		-3.0170		1.4524		C.ar		1		UNL1		-0.1747
12		C		5.9662		-4.1978		1.8358		C.ar		1		UNL1		-0.1338
13		C		6.2086		-5.2029		0.8978		C.ar		1		UNL1		-0.1272
14		C		5.8114		-5.0148		-0.4273		C.ar		1		UNL1		-0.1338
15		C		5.1791		-3.8329		-0.8103		C.ar		1		UNL1		-0.1743
16		C		4.6343		-0.3149		0.2564		C.ar		1		UNL1		-0.1734
17		C		4.0018		0.8642		-0.1279		C.ar		1		UNL1		-0.1870
18		N		0.2429		1.8049		-0.2230		N.ar		1		UNL1		-0.5076
19		C		-0.6587		2.1444		0.6374		C.ar		1		UNL1		0.3437
20		S		-2.0895		1.1349		0.9986		S.3		1		UNL1		0.1547
21		C		-1.8203		-0.2829		-0.1476		C.3		1		UNL1		-0.5529
22		C		-2.9561		-0.4049		-1.1682		C.2		1		UNL1		0.4162
23		O		-2.7491		-0.0748		-2.3265		O.2		1		UNL1		-0.4537
24		C		-4.2759		-0.9295		-0.7295		C.ar		1		UNL1		0.0836
25		C		-5.3115		-1.0108		-1.6828		C.ar		1		UNL1		-0.1615
26		C		-6.5604		-1.4916		-1.3391		C.ar		1		UNL1		-0.1712
27		C		-6.8161		-1.9102		-0.0197		C.ar		1		UNL1		0.3886
28		O		-8.0717		-2.3662		0.2175		O.3		1		UNL1		-0.4976
29		C		-8.4035		-2.8011		1.5302		C.3		1		UNL1		-0.2212
30		C		-5.7997		-1.8379		0.9426		C.ar		1		UNL1		-0.2007
31		C		-4.5442		-1.3513		0.5797		C.ar		1		UNL1		-0.1920
32		N		-0.5984		3.3026		1.3512		N.ar		1		UNL1		-0.6564
33		C		0.4511		4.2391		1.2171		C.ar		1		UNL1		0.5848
34		O		0.4319		5.2648		1.8874		O.2		1		UNL1		-0.5258
35		H		1.3755		6.5254		-0.5198		H		1		UNL1		0.1711
36		H		2.0332		5.6112		-1.8918		H		1		UNL1		0.1422
37		H		3.0856		6.6910		-0.9557		H		1		UNL1		0.1452
38		H		3.5082		4.3200		-0.2741		H		1		UNL1		0.1390
39		H		2.8336		5.2519		1.0577		H		1		UNL1		0.1704
40		H		3.0181		2.9070		-1.7246		H		1		UNL1		0.1622
41		H		1.6910		1.9626		-2.3922		H		1		UNL1		0.1735
42		H		1.7715		-0.4119		-2.3372		H		1		UNL1		0.1368
43		H		2.8745		-2.5032		-1.6481		H		1		UNL1		0.1321
44		H		5.1243		-2.2531		2.1966		H		1		UNL1		0.1318
45		H		6.2636		-4.3361		2.8721		H		1		UNL1		0.1297
46		H		6.7026		-6.1236		1.1964		H		1		UNL1		0.1289
47		H		6.0028		-5.7865		-1.1685		H		1		UNL1		0.1300
48		H		4.8996		-3.6861		-1.8499		H		1		UNL1		0.1325
49		H		5.4561		-0.2725		0.9659		H		1		UNL1		0.1326
50		H		4.3263		1.8078		0.3054		H		1		UNL1		0.1309
51		H		-1.6998		-1.1849		0.4576		H		1		UNL1		0.1972
52		H		-0.8914		-0.0623		-0.6780		H		1		UNL1		0.2565
53		H		-5.1018		-0.6838		-2.6958		H		1		UNL1		0.1687
54		H		-7.3638		-1.5569		-2.0661		H		1		UNL1		0.1495
55		H		-9.4471		-3.1155		1.4836		H		1		UNL1		0.1782
56		H		-7.7809		-3.6498		1.8403		H		1		UNL1		0.1587
57		H		-8.3002		-1.9878		2.2595		H		1		UNL1		0.1595
58		H		-5.9733		-2.1550		1.9641		H		1		UNL1		0.1404
59		H		-3.7737		-1.3074		1.3438		H		1		UNL1		0.1422
60		H		-1.3238		3.5584		2.0139		H		1		UNL1		0.3531
@<TRIPOS>BOND
1		53		25		1
2		41		5		1
3		42		7		1
4		23		22		2
5		54		26		1
6		36		1		1
7		48		15		1
8		40		5		1
9		25		26		ar
10		25		24		ar
11		43		8		1
12		7		8		ar
13		7		6		ar
14		5		6		1
15		5		4		1
16		26		27		ar
17		8		9		ar
18		47		14		1
19		22		24		1
20		22		21		1
21		6		17		ar
22		37		1		1
23		1		35		1
24		1		2		1
25		15		14		ar
26		15		10		ar
27		24		31		ar
28		52		21		1
29		4		18		ar
30		4		3		ar
31		14		13		ar
32		9		10		1
33		9		16		ar
34		38		2		1
35		18		19		ar
36		21		51		1
37		21		20		1
38		17		16		ar
39		17		50		1
40		27		28		1
41		27		30		ar
42		2		3		1
43		2		39		1
44		10		11		ar
45		28		29		1
46		3		33		ar
47		16		49		1
48		31		30		ar
49		31		59		1
50		19		20		1
51		19		32		ar
52		13		46		1
53		13		12		ar
54		30		58		1
55		33		32		ar
56		33		34		2
57		32		60		1
58		11		12		ar
59		11		44		1
60		55		29		1
61		29		56		1
62		29		57		1
63		12		45		1

