@<TRIPOS>MOLECULE
WYP-2009-EJMC-1016-5A
 45 47 0 0 0
SMALL
MULLIKEN_CHARGES
****
Gaussian 16 #p B3LYP/6-31G* opt
@<TRIPOS>ATOM
1		C		-8.0696		-1.4657		-0.8786		C.3		1		UNL1		-0.2172
2		O		-7.5549		-0.6462		0.1595		O.3		1		UNL1		-0.5044
3		C		-6.2098		-0.4283		0.2049		C.ar		1		UNL1		0.3783
4		C		-5.2841		-0.9618		-0.7002		C.ar		1		UNL1		-0.1944
5		C		-3.9272		-0.6689		-0.5500		C.ar		1		UNL1		-0.1740
6		C		-3.4648		0.1444		0.4885		C.ar		1		UNL1		0.1414
7		C		-1.9996		0.4483		0.6404		C.3		1		UNL1		-0.4976
8		S		-1.5875		1.9859		-0.3206		S.3		1		UNL1		0.1479
9		C		0.1782		2.0162		-0.1330		C.ar		1		UNL1		0.3253
10		N		0.8035		1.1303		0.5812		N.ar		1		UNL1		-0.5123
11		C		2.1799		1.2073		0.6540		C.ar		1		UNL1		0.2570
12		C		2.8078		0.1032		1.4993		C.3		1		UNL1		-0.4370
13		C		3.6567		-0.9115		0.7469		C.ar		1		UNL1		0.1705
14		C		5.0539		-0.8954		0.8809		C.ar		1		UNL1		-0.1929
15		C		5.8742		-1.8103		0.2235		C.ar		1		UNL1		-0.1215
16		C		5.3059		-2.7853		-0.5950		C.ar		1		UNL1		-0.1303
17		C		3.9205		-2.8438		-0.7357		C.ar		1		UNL1		-0.1429
18		C		3.1183		-1.9193		-0.0675		C.ar		1		UNL1		0.0250
19		BR		1.2193		-2.1132		-0.2689		Br		1		UNL1		-0.1294
20		C		2.9167		2.2030		0.0559		C.ar		1		UNL1		0.0559
21		C		4.4094		2.3609		0.1608		C.3		1		UNL1		-0.5376
22		C		2.2228		3.2077		-0.7430		C.ar		1		UNL1		0.5725
23		O		2.7262		4.1493		-1.3449		O.2		1		UNL1		-0.5273
24		N		0.8248		3.0193		-0.7915		N.ar		1		UNL1		-0.6476
25		C		-4.4084		0.6720		1.3850		C.ar		1		UNL1		-0.1692
26		C		-5.7612		0.3922		1.2512		C.ar		1		UNL1		-0.1710
27		H		-7.8568		-1.0430		-1.8693		H		1		UNL1		0.1546
28		H		-9.1497		-1.4989		-0.7252		H		1		UNL1		0.1726
29		H		-7.6647		-2.4850		-0.8266		H		1		UNL1		0.1539
30		H		-5.6031		-1.6013		-1.5151		H		1		UNL1		0.1358
31		H		-3.2168		-1.0873		-1.2591		H		1		UNL1		0.1370
32		H		-1.3596		-0.3468		0.2543		H		1		UNL1		0.2141
33		H		-1.7208		0.6307		1.6800		H		1		UNL1		0.2005
34		H		3.4358		0.5612		2.2730		H		1		UNL1		0.1634
35		H		1.9855		-0.4116		2.0039		H		1		UNL1		0.1882
36		H		5.5028		-0.1434		1.5240		H		1		UNL1		0.1362
37		H		6.9515		-1.7613		0.3539		H		1		UNL1		0.1383
38		H		5.9305		-3.5054		-1.1158		H		1		UNL1		0.1409
39		H		3.4577		-3.6055		-1.3535		H		1		UNL1		0.1546
40		H		4.9435		1.6571		-0.4890		H		1		UNL1		0.1747
41		H		4.7657		2.1956		1.1840		H		1		UNL1		0.1453
42		H		4.6842		3.3721		-0.1477		H		1		UNL1		0.1915
43		H		0.3178		3.6965		-1.3525		H		1		UNL1		0.3525
44		H		-4.0747		1.3082		2.2014		H		1		UNL1		0.1361
45		H		-6.4925		0.7941		1.9453		H		1		UNL1		0.1427
@<TRIPOS>BOND
1		27		1		1
2		30		4		1
3		39		17		1
4		43		24		1
5		23		22		2
6		31		5		1
7		38		16		1
8		1		29		1
9		1		28		1
10		1		2		1
11		24		22		ar
12		24		9		ar
13		22		20		ar
14		17		16		ar
15		17		18		ar
16		4		5		ar
17		4		3		ar
18		16		15		ar
19		5		6		ar
20		40		21		1
21		8		9		1
22		8		7		1
23		19		18		1
24		42		21		1
25		9		10		ar
26		18		13		ar
27		20		21		1
28		20		11		ar
29		2		3		1
30		21		41		1
31		3		26		ar
32		15		37		1
33		15		14		ar
34		32		7		1
35		6		7		1
36		6		25		ar
37		10		11		ar
38		7		33		1
39		11		12		1
40		13		14		ar
41		13		12		1
42		14		36		1
43		26		25		ar
44		26		45		1
45		25		44		1
46		12		35		1
47		12		34		1

