@<TRIPOS>MOLECULE
WYP-2009-EJMC-1016-5R
 52 54 0 0 0
SMALL
MULLIKEN_CHARGES
****
Gaussian 16 #p B3LYP/6-31G* opt
@<TRIPOS>ATOM
1		C		-4.2128		-3.9666		-0.3601		C.3		1		UNL1		-0.4462
2		C		-3.9687		-2.6786		0.4479		C.3		1		UNL1		-0.3361
3		C		-2.6228		-2.0531		0.1710		C.ar		1		UNL1		0.0503
4		C		-2.3927		-1.0206		-0.7101		C.ar		1		UNL1		0.2287
5		C		-3.4919		-0.3633		-1.5257		C.3		1		UNL1		-0.4210
6		C		-4.1463		0.8197		-0.8211		C.ar		1		UNL1		0.1836
7		C		-5.5155		0.8160		-0.5525		C.ar		1		UNL1		-0.2510
8		C		-6.1372		1.9018		0.0836		C.ar		1		UNL1		0.1872
9		C		-7.6205		1.8714		0.3736		C.3		1		UNL1		-0.5308
10		C		-5.3528		2.9977		0.4444		C.ar		1		UNL1		-0.2378
11		C		-3.9736		3.0321		0.1856		C.ar		1		UNL1		0.1901
12		C		-3.1508		4.2345		0.5889		C.3		1		UNL1		-0.5312
13		C		-3.3844		1.9375		-0.4482		C.ar		1		UNL1		-0.2453
14		N		-1.1444		-0.4696		-0.9275		N.ar		1		UNL1		-0.5116
15		C		-0.1362		-0.9621		-0.2753		C.ar		1		UNL1		0.3292
16		S		1.4401		-0.2007		-0.6073		S.3		1		UNL1		0.2212
17		C		2.6030		-1.1062		0.5161		C.3		1		UNL1		-0.5478
18		C		3.9828		-0.5187		0.3472		C.ar		1		UNL1		0.1598
19		C		4.8610		-1.0356		-0.6159		C.ar		1		UNL1		-0.1713
20		C		6.1323		-0.4948		-0.7836		C.ar		1		UNL1		-0.1469
21		C		6.5134		0.5748		0.0231		C.ar		1		UNL1		0.2763
22		N		7.8591		1.1505		-0.1438		N.pl3		1		UNL1		0.3822
23		O		8.1691		2.0937		0.5824		O.2		1		UNL1		-0.3899
24		O		8.5896		0.6523		-0.9989		O.2		1		UNL1		-0.3898
25		C		5.6628		1.1154		0.9848		C.ar		1		UNL1		-0.1471
26		C		4.3951		0.5627		1.1389		C.ar		1		UNL1		-0.1707
27		N		-0.2576		-1.9959		0.5987		N.ar		1		UNL1		-0.6520
28		C		-1.4963		-2.6275		0.8864		C.ar		1		UNL1		0.5766
29		O		-1.5126		-3.5620		1.6798		O.2		1		UNL1		-0.5285
30		H		-3.4420		-4.7099		-0.1340		H		1		UNL1		0.1691
31		H		-4.1951		-3.7725		-1.4390		H		1		UNL1		0.1408
32		H		-5.1872		-4.4008		-0.1091		H		1		UNL1		0.1455
33		H		-4.7665		-1.9551		0.2575		H		1		UNL1		0.1475
34		H		-4.0102		-2.9247		1.5147		H		1		UNL1		0.1690
35		H		-3.0319		-0.0236		-2.4605		H		1		UNL1		0.1770
36		H		-4.2580		-1.0981		-1.7881		H		1		UNL1		0.1574
37		H		-6.1178		-0.0406		-0.8511		H		1		UNL1		0.1143
38		H		-7.8642		1.1166		1.1326		H		1		UNL1		0.1630
39		H		-7.9753		2.8385		0.7437		H		1		UNL1		0.1546
40		H		-8.1999		1.6221		-0.5236		H		1		UNL1		0.1595
41		H		-5.8230		3.8487		0.9347		H		1		UNL1		0.1124
42		H		-3.5590		5.1602		0.1647		H		1		UNL1		0.1601
43		H		-3.1362		4.3615		1.6790		H		1		UNL1		0.1605
44		H		-2.1140		4.1401		0.2513		H		1		UNL1		0.1566
45		H		-2.3185		1.9460		-0.6613		H		1		UNL1		0.1415
46		H		2.6093		-2.1684		0.2517		H		1		UNL1		0.1970
47		H		2.2656		-0.9922		1.5510		H		1		UNL1		0.1988
48		H		4.5482		-1.8692		-1.2386		H		1		UNL1		0.1560
49		H		6.8252		-0.8846		-1.5188		H		1		UNL1		0.1910
50		H		5.9997		1.9471		1.5910		H		1		UNL1		0.1909
51		H		3.7191		0.9744		1.8832		H		1		UNL1		0.1562
52		H		0.5332		-2.3910		1.0931		H		1		UNL1		0.3509
@<TRIPOS>BOND
1		35		5		1
2		36		5		1
3		5		6		1
4		5		4		1
5		49		20		1
6		31		1		1
7		48		19		1
8		24		22		2
9		14		4		ar
10		14		15		ar
11		37		7		1
12		6		7		ar
13		6		13		ar
14		20		19		ar
15		20		21		ar
16		4		3		ar
17		45		13		1
18		19		18		ar
19		16		15		1
20		16		17		1
21		7		8		ar
22		40		9		1
23		13		11		ar
24		1		30		1
25		1		32		1
26		1		2		1
27		15		27		ar
28		22		21		1
29		22		23		2
30		21		25		ar
31		8		9		1
32		8		10		ar
33		42		12		1
34		3		2		1
35		3		28		ar
36		11		10		ar
37		11		12		1
38		44		12		1
39		46		17		1
40		33		2		1
41		18		17		1
42		18		26		ar
43		9		39		1
44		9		38		1
45		10		41		1
46		2		34		1
47		17		47		1
48		12		43		1
49		27		28		ar
50		27		52		1
51		28		29		2
52		25		26		ar
53		25		50		1
54		26		51		1

