@<TRIPOS>MOLECULE
WYP-2009-EJMC-1016-5M
 48 50 0 0 0
SMALL
MULLIKEN_CHARGES
****
Gaussian 16 #p B3LYP/6-31G* opt
@<TRIPOS>ATOM
1		C		3.6410		-4.7381		-0.1562		C.3		1		UNL1		-0.4455
2		C		3.4778		-3.4025		0.5924		C.3		1		UNL1		-0.3345
3		C		2.1914		-2.6878		0.2547		C.ar		1		UNL1		0.0482
4		C		2.0572		-1.6790		-0.6720		C.ar		1		UNL1		0.2279
5		C		3.2207		-1.1407		-1.4874		C.3		1		UNL1		-0.4189
6		C		3.9042		0.0606		-0.8462		C.ar		1		UNL1		0.1662
7		C		5.2631		0.0201		-0.5151		C.ar		1		UNL1		-0.1839
8		C		5.8897		1.1253		0.0641		C.ar		1		UNL1		-0.1299
9		C		5.1706		2.2909		0.3239		C.ar		1		UNL1		-0.1479
10		C		3.8176		2.3237		-0.0109		C.ar		1		UNL1		0.0846
11		BR		2.8133		3.9198		0.3329		Br		1		UNL1		-0.1378
12		C		3.1777		1.2329		-0.5897		C.ar		1		UNL1		-0.1970
13		N		0.8648		-1.0417		-0.9442		N.ar		1		UNL1		-0.5170
14		C		-0.1971		-1.4261		-0.2975		C.ar		1		UNL1		0.3275
15		S		-1.7038		-0.5698		-0.6883		S.3		1		UNL1		0.2164
16		C		-2.9557		-1.3315		0.4543		C.3		1		UNL1		-0.5458
17		C		-4.2871		-0.6614		0.2336		C.ar		1		UNL1		0.1420
18		C		-4.6478		0.4756		0.9612		C.ar		1		UNL1		-0.1692
19		C		-5.8750		1.1102		0.7604		C.ar		1		UNL1		-0.1946
20		C		-6.7664		0.6040		-0.1936		C.ar		1		UNL1		0.3810
21		O		-7.9883		1.1359		-0.4734		O.3		1		UNL1		-0.5032
22		C		-8.3982		2.2962		0.2356		C.3		1		UNL1		-0.2190
23		C		-6.4146		-0.5351		-0.9346		C.ar		1		UNL1		-0.1712
24		C		-5.1908		-1.1531		-0.7223		C.ar		1		UNL1		-0.1642
25		N		-0.1697		-2.4308		0.6190		N.ar		1		UNL1		-0.6513
26		C		1.0069		-3.1431		0.9627		C.ar		1		UNL1		0.5777
27		O		0.9358		-4.0433		1.7926		O.2		1		UNL1		-0.5302
28		H		2.8082		-5.4084		0.0776		H		1		UNL1		0.1707
29		H		3.6655		-4.5889		-1.2422		H		1		UNL1		0.1398
30		H		4.5715		-5.2362		0.1396		H		1		UNL1		0.1444
31		H		4.3358		-2.7523		0.3961		H		1		UNL1		0.1404
32		H		3.4742		-3.6061		1.6689		H		1		UNL1		0.1701
33		H		3.9605		-1.9261		-1.6622		H		1		UNL1		0.1592
34		H		2.8164		-0.8496		-2.4632		H		1		UNL1		0.1822
35		H		5.8385		-0.8797		-0.7177		H		1		UNL1		0.1306
36		H		6.9460		1.0806		0.3153		H		1		UNL1		0.1390
37		H		5.6463		3.1557		0.7731		H		1		UNL1		0.1516
38		H		2.1235		1.2820		-0.8390		H		1		UNL1		0.1783
39		H		-3.0261		-2.4028		0.2390		H		1		UNL1		0.1891
40		H		-2.6193		-1.1915		1.4865		H		1		UNL1		0.1920
41		H		-3.9623		0.8792		1.7027		H		1		UNL1		0.1387
42		H		-6.1220		1.9870		1.3476		H		1		UNL1		0.1394
43		H		-8.4654		2.1060		1.3148		H		1		UNL1		0.1550
44		H		-7.7166		3.1381		0.0581		H		1		UNL1		0.1570
45		H		-9.3884		2.5460		-0.1489		H		1		UNL1		0.1749
46		H		-7.1185		-0.9146		-1.6683		H		1		UNL1		0.1464
47		H		-4.9309		-2.0334		-1.3054		H		1		UNL1		0.1376
48		H		-1.0013		-2.7403		1.1079		H		1		UNL1		0.3530
@<TRIPOS>BOND
1		34		5		1
2		46		23		1
3		33		5		1
4		5		6		1
5		5		4		1
6		47		24		1
7		29		1		1
8		13		4		ar
9		13		14		ar
10		23		24		ar
11		23		20		ar
12		6		12		ar
13		6		7		ar
14		38		12		1
15		24		17		ar
16		35		7		1
17		15		14		1
18		15		16		1
19		4		3		ar
20		12		10		ar
21		7		8		ar
22		21		20		1
23		21		22		1
24		14		25		ar
25		20		19		ar
26		1		28		1
27		1		30		1
28		1		2		1
29		45		22		1
30		10		9		ar
31		10		11		1
32		44		22		1
33		8		36		1
34		8		9		ar
35		17		16		1
36		17		18		ar
37		22		43		1
38		39		16		1
39		3		2		1
40		3		26		ar
41		9		37		1
42		31		2		1
43		16		40		1
44		2		32		1
45		25		26		ar
46		25		48		1
47		19		18		ar
48		19		42		1
49		18		41		1
50		26		27		2

