@<TRIPOS>MOLECULE
WYP-2008-BMC-3887-5L
 50 52 0 0 0
SMALL
MULLIKEN_CHARGES
****
Gaussian 16 #p B3LYP/6-31G* opt
@<TRIPOS>ATOM
1		C		-0.7043		4.6198		1.0066		C.3		1		UNL1		-0.4467
2		C		-1.5058		3.6251		0.1464		C.3		1		UNL1		-0.3356
3		C		-0.6335		2.6005		-0.5373		C.ar		1		UNL1		0.0478
4		C		-0.4012		1.3264		-0.0820		C.ar		1		UNL1		0.2341
5		C		-1.0223		0.7757		1.1901		C.3		1		UNL1		-0.4222
6		C		-2.4053		0.1695		0.9886		C.ar		1		UNL1		0.1815
7		C		-2.6214		-0.8378		0.0375		C.ar		1		UNL1		-0.1769
8		C		-3.8819		-1.4065		-0.1353		C.ar		1		UNL1		-0.1449
9		C		-4.9427		-0.9641		0.6540		C.ar		1		UNL1		0.0816
10		BR		-6.6759		-1.7405		0.4233		Br		1		UNL1		-0.1309
11		C		-4.7585		0.0325		1.6075		C.ar		1		UNL1		-0.1459
12		C		-3.4892		0.5922		1.7662		C.ar		1		UNL1		-0.1931
13		N		0.4052		0.4138		-0.7437		N.ar		1		UNL1		-0.5302
14		C		0.9732		0.7875		-1.8511		C.ar		1		UNL1		0.3436
15		S		2.0201		-0.2809		-2.8180		S.3		1		UNL1		0.1814
16		C		1.9922		-1.8398		-1.8371		C.3		1		UNL1		-0.5385
17		C		3.4158		-2.2994		-1.4948		C.2		1		UNL1		0.3986
18		O		3.9206		-3.1684		-2.1923		O.2		1		UNL1		-0.4572
19		C		4.1402		-1.6953		-0.3493		C.ar		1		UNL1		0.0778
20		C		3.5762		-0.7444		0.5122		C.ar		1		UNL1		-0.1944
21		C		4.3027		-0.2196		1.5803		C.ar		1		UNL1		-0.2081
22		C		5.6193		-0.6475		1.8005		C.ar		1		UNL1		0.3895
23		O		6.4165		-0.2052		2.8056		O.3		1		UNL1		-0.4975
24		C		5.9022		0.7661		3.7079		C.3		1		UNL1		-0.2206
25		C		6.1961		-1.6032		0.9434		C.ar		1		UNL1		-0.1726
26		C		5.4653		-2.1152		-0.1114		C.ar		1		UNL1		-0.1609
27		N		0.8168		2.0356		-2.3681		N.ar		1		UNL1		-0.6545
28		C		0.0237		3.0392		-1.7620		C.ar		1		UNL1		0.5835
29		O		-0.0519		4.1441		-2.2837		O.2		1		UNL1		-0.5189
30		H		-0.1643		4.1090		1.8130		H		1		UNL1		0.1362
31		H		-1.3716		5.3606		1.4613		H		1		UNL1		0.1484
32		H		0.0257		5.1534		0.3906		H		1		UNL1		0.1733
33		H		-2.2688		3.1287		0.7532		H		1		UNL1		0.1440
34		H		-2.0342		4.1868		-0.6317		H		1		UNL1		0.1741
35		H		-0.3410		0.0075		1.5741		H		1		UNL1		0.1749
36		H		-1.0816		1.5607		1.9495		H		1		UNL1		0.1617
37		H		-1.7936		-1.1811		-0.5763		H		1		UNL1		0.1517
38		H		-4.0398		-2.1855		-0.8733		H		1		UNL1		0.1562
39		H		-5.5909		0.3683		2.2164		H		1		UNL1		0.1555
40		H		-3.3456		1.3677		2.5150		H		1		UNL1		0.1355
41		H		1.3609		-1.6426		-0.9673		H		1		UNL1		0.2341
42		H		1.5402		-2.6100		-2.4634		H		1		UNL1		0.2134
43		H		2.5588		-0.3963		0.3612		H		1		UNL1		0.1644
44		H		3.8393		0.5150		2.2284		H		1		UNL1		0.1371
45		H		5.6329		1.6936		3.1873		H		1		UNL1		0.1593
46		H		5.0273		0.3856		4.2502		H		1		UNL1		0.1579
47		H		6.7070		0.9687		4.4161		H		1		UNL1		0.1779
48		H		7.2167		-1.9195		1.1342		H		1		UNL1		0.1485
49		H		5.8977		-2.8532		-0.7789		H		1		UNL1		0.1677
50		H		1.2794		2.3133		-3.2286		H		1		UNL1		0.3583
@<TRIPOS>BOND
1		50		27		1
2		15		14		1
3		15		16		1
4		42		16		1
5		27		14		ar
6		27		28		ar
7		29		28		2
8		18		17		2
9		14		13		ar
10		16		17		1
11		16		41		1
12		28		3		ar
13		17		19		1
14		38		8		1
15		49		26		1
16		13		4		ar
17		34		2		1
18		37		7		1
19		3		4		ar
20		3		2		1
21		19		26		ar
22		19		20		ar
23		8		7		ar
24		8		9		ar
25		26		25		ar
26		4		5		1
27		7		6		ar
28		2		33		1
29		2		1		1
30		43		20		1
31		32		1		1
32		10		9		1
33		20		21		ar
34		9		11		ar
35		25		48		1
36		25		22		ar
37		6		5		1
38		6		12		ar
39		1		31		1
40		1		30		1
41		5		35		1
42		5		36		1
43		21		22		ar
44		21		44		1
45		11		12		ar
46		11		39		1
47		12		40		1
48		22		23		1
49		23		24		1
50		45		24		1
51		24		46		1
52		24		47		1

