@<TRIPOS>MOLECULE
WYP-2008-BMC-3887-5N
 56 58 0 0 0
SMALL
MULLIKEN_CHARGES
****
Gaussian 16 #p B3LYP/6-31G* opt
@<TRIPOS>ATOM
1		C		5.9323		0.7589		-0.1950		C.3		1		UNL1		-0.4456
2		C		4.6139		1.0990		0.5245		C.3		1		UNL1		-0.3339
3		C		3.5663		0.0202		0.3742		C.ar		1		UNL1		0.0252
4		C		2.5353		0.0117		-0.5340		C.ar		1		UNL1		0.2503
5		C		2.2766		1.1274		-1.5285		C.3		1		UNL1		-0.4213
6		C		1.0724		1.9920		-1.1774		C.ar		1		UNL1		0.1946
7		C		1.0761		2.7870		-0.0241		C.ar		1		UNL1		-0.2437
8		C		-0.0021		3.6221		0.2854		C.ar		1		UNL1		0.1857
9		C		0.0413		4.5189		1.5020		C.3		1		UNL1		-0.5304
10		C		-1.1064		3.6360		-0.5778		C.ar		1		UNL1		-0.2524
11		C		-1.1490		2.8401		-1.7274		C.ar		1		UNL1		0.1944
12		C		-2.3672		2.8298		-2.6215		C.3		1		UNL1		-0.5340
13		C		-0.0453		2.0267		-2.0155		C.ar		1		UNL1		-0.2509
14		N		1.6226		-1.0257		-0.6411		N.ar		1		UNL1		-0.5216
15		C		1.7578		-2.0466		0.1463		C.ar		1		UNL1		0.3433
16		S		0.6871		-3.4704		0.0928		S.3		1		UNL1		0.1755
17		C		-0.3986		-3.0762		-1.3420		C.3		1		UNL1		-0.5355
18		C		-1.8780		-3.1925		-0.9535		C.2		1		UNL1		0.3955
19		O		-2.4701		-4.2211		-1.2522		O.2		1		UNL1		-0.4605
20		C		-2.5479		-2.0823		-0.2339		C.ar		1		UNL1		0.0779
21		C		-3.8849		-2.2707		0.1734		C.ar		1		UNL1		-0.1620
22		C		-4.5726		-1.2749		0.8403		C.ar		1		UNL1		-0.1730
23		C		-3.9388		-0.0497		1.1198		C.ar		1		UNL1		0.3844
24		O		-4.6964		0.8649		1.7785		O.3		1		UNL1		-0.4996
25		C		-4.1090		2.1143		2.1181		C.3		1		UNL1		-0.2235
26		C		-2.6121		0.1578		0.7184		C.ar		1		UNL1		-0.2154
27		C		-1.9292		-0.8563		0.0478		C.ar		1		UNL1		-0.2013
28		N		2.7437		-2.1259		1.0822		N.ar		1		UNL1		-0.6555
29		C		3.7198		-1.1220		1.2698		C.ar		1		UNL1		0.5849
30		O		4.5840		-1.2736		2.1247		O.2		1		UNL1		-0.5226
31		H		6.3443		-0.1791		0.1889		H		1		UNL1		0.1731
32		H		6.6749		1.5482		-0.0318		H		1		UNL1		0.1466
33		H		5.7809		0.6519		-1.2754		H		1		UNL1		0.1411
34		H		4.2342		2.0608		0.1667		H		1		UNL1		0.1401
35		H		4.8222		1.2151		1.5938		H		1		UNL1		0.1705
36		H		2.1046		0.6600		-2.5041		H		1		UNL1		0.1662
37		H		3.1661		1.7558		-1.6282		H		1		UNL1		0.1672
38		H		1.9356		2.7624		0.6424		H		1		UNL1		0.1280
39		H		0.5237		5.4780		1.2710		H		1		UNL1		0.1696
40		H		-0.9645		4.7450		1.8722		H		1		UNL1		0.1509
41		H		0.6087		4.0604		2.3190		H		1		UNL1		0.1607
42		H		-1.9484		4.2890		-0.3524		H		1		UNL1		0.1131
43		H		-2.0922		2.6979		-3.6735		H		1		UNL1		0.1594
44		H		-3.0412		2.0046		-2.3561		H		1		UNL1		0.1741
45		H		-2.9376		3.7606		-2.5346		H		1		UNL1		0.1551
46		H		-0.0579		1.4100		-2.9119		H		1		UNL1		0.1200
47		H		-0.0980		-2.0831		-1.6854		H		1		UNL1		0.2353
48		H		-0.2013		-3.8191		-2.1158		H		1		UNL1		0.2109
49		H		-4.3613		-3.2197		-0.0498		H		1		UNL1		0.1647
50		H		-5.6007		-1.4108		1.1608		H		1		UNL1		0.1451
51		H		-3.7885		2.6638		1.2242		H		1		UNL1		0.1589
52		H		-3.2498		1.9830		2.7878		H		1		UNL1		0.1595
53		H		-4.8884		2.6785		2.6330		H		1		UNL1		0.1736
54		H		-2.1048		1.0953		0.9121		H		1		UNL1		0.1555
55		H		-0.9033		-0.6674		-0.2524		H		1		UNL1		0.1756
56		H		2.8403		-2.9396		1.6818		H		1		UNL1		0.3565
@<TRIPOS>BOND
1		43		12		1
2		46		13		1
3		12		45		1
4		12		44		1
5		12		11		1
6		36		5		1
7		48		17		1
8		13		11		ar
9		13		6		ar
10		11		10		ar
11		47		17		1
12		37		5		1
13		5		6		1
14		5		4		1
15		17		18		1
16		17		16		1
17		33		1		1
18		19		18		2
19		6		7		ar
20		18		20		1
21		14		4		ar
22		14		15		ar
23		10		42		1
24		10		8		ar
25		4		3		ar
26		55		27		1
27		20		27		ar
28		20		21		ar
29		1		32		1
30		1		31		1
31		1		2		1
32		49		21		1
33		7		8		ar
34		7		38		1
35		27		26		ar
36		16		15		1
37		15		28		ar
38		34		2		1
39		21		22		ar
40		8		9		1
41		3		2		1
42		3		29		ar
43		2		35		1
44		26		54		1
45		26		23		ar
46		22		23		ar
47		22		50		1
48		28		29		ar
49		28		56		1
50		23		24		1
51		51		25		1
52		29		30		2
53		39		9		1
54		9		40		1
55		9		41		1
56		24		25		1
57		25		53		1
58		25		52		1

