@<TRIPOS>MOLECULE
WYP-2009-EJMC-1016-5P
 58 61 0 0 0
SMALL
MULLIKEN_CHARGES
****
Gaussian 16 #p B3LYP/6-31G* opt
@<TRIPOS>ATOM
1		C		0.4332		4.4723		0.0446		C.3		1		UNL1		-0.4456
2		C		-0.2555		3.2137		0.6039		C.3		1		UNL1		-0.3341
3		C		0.3058		1.9311		0.0391		C.ar		1		UNL1		0.0487
4		C		-0.2288		1.2235		-1.0127		C.ar		1		UNL1		0.2274
5		C		-1.4812		1.6554		-1.7561		C.3		1		UNL1		-0.4201
6		C		-2.7611		1.0558		-1.1887		C.ar		1		UNL1		0.1755
7		C		-3.7877		1.8761		-0.7084		C.ar		1		UNL1		-0.1968
8		C		-4.9654		1.3325		-0.1966		C.ar		1		UNL1		-0.1756
9		C		-5.1592		-0.0563		-0.1471		C.ar		1		UNL1		0.0897
10		C		-6.4118		-0.6395		0.3972		C.ar		1		UNL1		0.0897
11		C		-6.3879		-1.8193		1.1604		C.ar		1		UNL1		-0.1740
12		C		-7.5633		-2.3676		1.6717		C.ar		1		UNL1		-0.1337
13		C		-8.7911		-1.7474		1.4332		C.ar		1		UNL1		-0.1273
14		C		-8.8314		-0.5743		0.6773		C.ar		1		UNL1		-0.1337
15		C		-7.6557		-0.0280		0.1648		C.ar		1		UNL1		-0.1740
16		C		-4.1257		-0.8763		-0.6336		C.ar		1		UNL1		-0.1747
17		C		-2.9508		-0.3330		-1.1447		C.ar		1		UNL1		-0.1847
18		N		0.2991		0.0355		-1.4788		N.ar		1		UNL1		-0.5096
19		C		1.3873		-0.4074		-0.9230		C.ar		1		UNL1		0.3251
20		S		2.0432		-1.9216		-1.5934		S.3		1		UNL1		0.1841
21		C		3.1668		-2.5700		-0.2674		C.3		1		UNL1		-0.5464
22		C		4.4726		-1.8425		-0.0445		C.ar		1		UNL1		0.1446
23		C		4.8313		-1.4109		1.2360		C.ar		1		UNL1		-0.2117
24		C		6.0473		-0.7626		1.4796		C.ar		1		UNL1		-0.1823
25		C		6.9326		-0.5415		0.4209		C.ar		1		UNL1		0.3801
26		O		8.1387		0.0783		0.5313		O.3		1		UNL1		-0.5026
27		C		8.5323		0.5643		1.8073		C.3		1		UNL1		-0.2211
28		C		6.5868		-0.9743		-0.8717		C.ar		1		UNL1		-0.1690
29		C		5.3767		-1.6101		-1.0968		C.ar		1		UNL1		-0.1654
30		N		2.0186		0.2450		0.0879		N.ar		1		UNL1		-0.6521
31		C		1.5357		1.4515		0.6502		C.ar		1		UNL1		0.5734
32		O		2.1642		1.9828		1.5603		O.2		1		UNL1		-0.5330
33		H		0.3046		4.5506		-1.0415		H		1		UNL1		0.1397
34		H		1.5056		4.4452		0.2605		H		1		UNL1		0.1703
35		H		0.0165		5.3770		0.5022		H		1		UNL1		0.1428
36		H		-0.1099		3.1925		1.6896		H		1		UNL1		0.1676
37		H		-1.3343		3.2639		0.4289		H		1		UNL1		0.1428
38		H		-1.3579		1.3330		-2.7964		H		1		UNL1		0.1768
39		H		-1.5626		2.7457		-1.7614		H		1		UNL1		0.1562
40		H		-3.6672		2.9571		-0.7320		H		1		UNL1		0.1245
41		H		-5.7332		1.9953		0.1930		H		1		UNL1		0.1309
42		H		-5.4353		-2.2956		1.3753		H		1		UNL1		0.1317
43		H		-7.5183		-3.2768		2.2657		H		1		UNL1		0.1288
44		H		-9.7074		-2.1741		1.8321		H		1		UNL1		0.1280
45		H		-9.7823		-0.0871		0.4775		H		1		UNL1		0.1290
46		H		-7.7023		0.8699		-0.4454		H		1		UNL1		0.1312
47		H		-4.2581		-1.9549		-0.6375		H		1		UNL1		0.1315
48		H		-2.1695		-0.9871		-1.5211		H		1		UNL1		0.1562
49		H		3.3425		-3.5939		-0.6177		H		1		UNL1		0.2052
50		H		2.5963		-2.6483		0.6629		H		1		UNL1		0.1948
51		H		4.1572		-1.5851		2.0725		H		1		UNL1		0.1430
52		H		6.2816		-0.4369		2.4861		H		1		UNL1		0.1447
53		H		9.5093		1.0275		1.6610		H		1		UNL1		0.1752
54		H		8.6224		-0.2506		2.5373		H		1		UNL1		0.1547
55		H		7.8264		1.3145		2.1860		H		1		UNL1		0.1620
56		H		7.2861		-0.7919		-1.6816		H		1		UNL1		0.1487
57		H		5.1188		-1.9242		-2.1048		H		1		UNL1		0.1479
58		H		2.9216		-0.0624		0.4394		H		1		UNL1		0.3650
@<TRIPOS>BOND
1		38		5		1
2		57		29		1
3		39		5		1
4		5		6		1
5		5		4		1
6		56		28		1
7		20		19		1
8		20		21		1
9		48		17		1
10		18		4		ar
11		18		19		ar
12		6		17		ar
13		6		7		ar
14		17		16		ar
15		29		28		ar
16		29		22		ar
17		33		1		1
18		4		3		ar
19		19		30		ar
20		28		25		ar
21		40		7		1
22		7		8		ar
23		47		16		1
24		16		9		ar
25		49		21		1
26		46		15		1
27		21		22		1
28		21		50		1
29		8		9		ar
30		8		41		1
31		9		10		1
32		22		23		ar
33		3		2		1
34		3		31		ar
35		1		34		1
36		1		35		1
37		1		2		1
38		30		58		1
39		30		31		ar
40		15		10		ar
41		15		14		ar
42		10		11		ar
43		25		26		1
44		25		24		ar
45		37		2		1
46		45		14		1
47		26		27		1
48		2		36		1
49		31		32		2
50		14		13		ar
51		11		42		1
52		11		12		ar
53		23		24		ar
54		23		51		1
55		13		12		ar
56		13		44		1
57		24		52		1
58		53		27		1
59		12		43		1
60		27		55		1
61		27		54		1

