@<TRIPOS>MOLECULE
WYP-2008-BMC-3887-5D
 47 49 0 0 0
SMALL
MULLIKEN_CHARGES
****
Gaussian 16 #p B3LYP/6-31G* opt
@<TRIPOS>ATOM
1		C		-9.4344		-0.3394		-2.2635		C.3		1		UNL1		-0.2235
2		O		-9.0386		-1.1327		-1.1499		O.3		1		UNL1		-0.4955
3		C		-7.7851		-0.9878		-0.6577		C.ar		1		UNL1		0.3915
4		C		-6.8266		-0.0992		-1.1671		C.ar		1		UNL1		-0.1978
5		C		-5.5662		-0.0379		-0.5766		C.ar		1		UNL1		-0.1911
6		C		-5.2343		-0.8472		0.5187		C.ar		1		UNL1		0.0942
7		C		-3.9091		-0.8221		1.1835		C.2		1		UNL1		0.4053
8		O		-3.6451		-1.5396		2.1363		O.2		1		UNL1		-0.4468
9		C		-2.8460		0.1453		0.6451		C.3		1		UNL1		-0.5749
10		S		-1.3247		-0.0626		1.6474		S.3		1		UNL1		0.2657
11		C		-0.2145		1.0910		0.8755		C.ar		1		UNL1		0.3246
12		N		0.9884		1.1240		1.3733		N.ar		1		UNL1		-0.5194
13		C		1.8945		1.9992		0.8168		C.ar		1		UNL1		0.2325
14		C		3.2678		1.9438		1.4604		C.3		1		UNL1		-0.4132
15		C		4.1655		0.8749		0.8509		C.ar		1		UNL1		0.1709
16		C		5.3579		1.2208		0.2055		C.ar		1		UNL1		-0.1912
17		C		6.1898		0.2473		-0.3519		C.ar		1		UNL1		-0.1469
18		C		5.8177		-1.0903		-0.2601		C.ar		1		UNL1		0.0818
19		BR		6.9479		-2.4372		-1.0187		Br		1		UNL1		-0.1380
20		C		4.6365		-1.4659		0.3785		C.ar		1		UNL1		-0.1467
21		C		3.8184		-0.4817		0.9302		C.ar		1		UNL1		-0.1768
22		C		1.6096		2.8366		-0.2381		C.ar		1		UNL1		0.0634
23		C		2.6002		3.7815		-0.8682		C.3		1		UNL1		-0.5485
24		C		0.2687		2.8193		-0.7957		C.ar		1		UNL1		0.5683
25		O		-0.1738		3.4938		-1.7193		O.2		1		UNL1		-0.5320
26		N		-0.5940		1.8913		-0.1567		N.ar		1		UNL1		-0.6511
27		C		-6.2108		-1.7342		1.0172		C.ar		1		UNL1		-0.1584
28		C		-7.4649		-1.8061		0.4421		C.ar		1		UNL1		-0.1731
29		H		-9.3953		0.7309		-2.0256		H		1		UNL1		0.1611
30		H		-8.8083		-0.5423		-3.1411		H		1		UNL1		0.1613
31		H		-10.4647		-0.6255		-2.4790		H		1		UNL1		0.1815
32		H		-7.0508		0.5400		-2.0127		H		1		UNL1		0.1447
33		H		-4.8421		0.6580		-0.9900		H		1		UNL1		0.1318
34		H		-2.6503		-0.0798		-0.4101		H		1		UNL1		0.2057
35		H		-3.2260		1.1717		0.7178		H		1		UNL1		0.2038
36		H		3.1184		1.7325		2.5251		H		1		UNL1		0.1800
37		H		3.7602		2.9173		1.3824		H		1		UNL1		0.1550
38		H		5.6522		2.2656		0.1402		H		1		UNL1		0.1343
39		H		7.1128		0.5263		-0.8483		H		1		UNL1		0.1525
40		H		4.3621		-2.5131		0.4454		H		1		UNL1		0.1547
41		H		2.8949		-0.7667		1.4257		H		1		UNL1		0.1661
42		H		2.1275		4.2868		-1.7130		H		1		UNL1		0.1941
43		H		3.4882		3.2529		-1.2334		H		1		UNL1		0.1661
44		H		2.9404		4.5495		-0.1616		H		1		UNL1		0.1596
45		H		-1.5320		1.8759		-0.5370		H		1		UNL1		0.3463
46		H		-5.9528		-2.3602		1.8649		H		1		UNL1		0.1733
47		H		-8.2231		-2.4854		0.8182		H		1		UNL1		0.1543
@<TRIPOS>BOND
1		30		1		1
2		31		1		1
3		1		29		1
4		1		2		1
5		32		4		1
6		25		24		2
7		42		23		1
8		43		23		1
9		4		3		ar
10		4		5		ar
11		2		3		1
12		19		18		1
13		33		5		1
14		23		22		1
15		23		44		1
16		39		17		1
17		24		22		ar
18		24		26		ar
19		3		28		ar
20		5		6		ar
21		45		26		1
22		34		9		1
23		17		18		ar
24		17		16		ar
25		18		20		ar
26		22		13		ar
27		26		11		ar
28		38		16		1
29		16		15		ar
30		20		40		1
31		20		21		ar
32		28		47		1
33		28		27		ar
34		6		27		ar
35		6		7		1
36		9		35		1
37		9		7		1
38		9		10		1
39		13		12		ar
40		13		14		1
41		15		21		ar
42		15		14		1
43		11		12		ar
44		11		10		1
45		21		41		1
46		27		46		1
47		7		8		2
48		37		14		1
49		14		36		1

