@<TRIPOS>MOLECULE
WYP-2008-BMC-3887-5F
 53 55 0 0 0
SMALL
MULLIKEN_CHARGES
****
Gaussian 16 #p B3LYP/6-31G* opt
@<TRIPOS>ATOM
1		C		6.4427		4.5628		0.7732		C.3		1		UNL1		-0.2219
2		O		6.4579		3.3444		1.5073		O.3		1		UNL1		-0.4972
3		C		5.7645		2.2837		1.0242		C.ar		1		UNL1		0.3895
4		C		5.8242		1.1125		1.8022		C.ar		1		UNL1		-0.1729
5		C		5.1505		-0.0238		1.3960		C.ar		1		UNL1		-0.1611
6		C		4.3970		-0.0352		0.2045		C.ar		1		UNL1		0.0829
7		C		3.6996		-1.2952		-0.1704		C.2		1		UNL1		0.4258
8		O		3.7549		-2.2912		0.5295		O.2		1		UNL1		-0.4483
9		C		2.8972		-1.2868		-1.4844		C.3		1		UNL1		-0.5427
10		S		2.1364		-2.8835		-1.9057		S.3		1		UNL1		0.1841
11		C		0.8073		-2.9192		-0.7266		C.ar		1		UNL1		0.3543
12		N		0.4345		-1.8609		-0.0710		N.ar		1		UNL1		-0.5273
13		C		-0.6242		-1.9935		0.8075		C.ar		1		UNL1		0.2398
14		C		-0.9696		-0.7132		1.5460		C.3		1		UNL1		-0.4146
15		C		-1.9677		0.1644		0.8034		C.ar		1		UNL1		0.1612
16		C		-1.6889		0.6262		-0.4896		C.ar		1		UNL1		-0.1979
17		C		-2.5963		1.4425		-1.1634		C.ar		1		UNL1		-0.0123
18		C		-2.2996		1.8772		-2.5750		C.3		1		UNL1		0.7914
19		F		-2.9000		3.0488		-2.8772		F		1		UNL1		-0.2682
20		F		-2.7308		0.9674		-3.4776		F		1		UNL1		-0.2566
21		F		-0.9722		2.0355		-2.7809		F		1		UNL1		-0.2724
22		C		-3.7994		1.8169		-0.5619		C.ar		1		UNL1		-0.1970
23		C		-4.0815		1.3612		0.7235		C.ar		1		UNL1		-0.0116
24		C		-5.3419		1.8031		1.4202		C.3		1		UNL1		0.7914
25		F		-5.1227		2.8880		2.1988		F		1		UNL1		-0.2590
26		F		-5.8309		0.8352		2.2267		F		1		UNL1		-0.2685
27		F		-6.3133		2.1346		0.5437		F		1		UNL1		-0.2669
28		C		-3.1740		0.5404		1.3999		C.ar		1		UNL1		-0.2152
29		C		-1.3252		-3.1583		0.9975		C.ar		1		UNL1		0.0637
30		C		-2.4955		-3.3063		1.9348		C.3		1		UNL1		-0.5498
31		C		-0.9145		-4.3493		0.2631		C.ar		1		UNL1		0.5764
32		O		-1.4103		-5.4668		0.3229		O.2		1		UNL1		-0.5202
33		N		0.1942		-4.1245		-0.5868		N.ar		1		UNL1		-0.6511
34		C		4.3463		1.1381		-0.5606		C.ar		1		UNL1		-0.1943
35		C		5.0195		2.2925		-0.1634		C.ar		1		UNL1		-0.1985
36		H		5.4253		4.9638		0.6841		H		1		UNL1		0.1599
37		H		7.0582		5.2600		1.3435		H		1		UNL1		0.1795
38		H		6.8725		4.4323		-0.2278		H		1		UNL1		0.1594
39		H		6.4071		1.1298		2.7176		H		1		UNL1		0.1509
40		H		5.1886		-0.9324		1.9876		H		1		UNL1		0.1695
41		H		2.1088		-0.5316		-1.4338		H		1		UNL1		0.2267
42		H		3.5469		-1.0444		-2.3321		H		1		UNL1		0.2016
43		H		-1.3655		-0.9465		2.5383		H		1		UNL1		0.1632
44		H		-0.0359		-0.1572		1.6879		H		1		UNL1		0.1843
45		H		-0.7569		0.3424		-0.9665		H		1		UNL1		0.1745
46		H		-4.5021		2.4534		-1.0862		H		1		UNL1		0.1748
47		H		-3.4133		0.1937		2.4007		H		1		UNL1		0.1580
48		H		-2.9125		-4.3102		1.8316		H		1		UNL1		0.1997
49		H		-3.2860		-2.5787		1.7183		H		1		UNL1		0.1634
50		H		-2.1990		-3.1713		2.9832		H		1		UNL1		0.1631
51		H		0.5366		-4.9474		-1.0728		H		1		UNL1		0.3576
52		H		3.7739		1.1729		-1.4826		H		1		UNL1		0.1372
53		H		4.9577		3.1831		-0.7777		H		1		UNL1		0.1417
@<TRIPOS>BOND
1		20		18		1
2		19		18		1
3		21		18		1
4		18		17		1
5		42		9		1
6		10		9		1
7		10		11		1
8		9		41		1
9		9		7		1
10		52		34		1
11		17		22		ar
12		17		16		ar
13		46		22		1
14		51		33		1
15		45		16		1
16		53		35		1
17		11		33		ar
18		11		12		ar
19		33		31		ar
20		22		23		ar
21		34		35		ar
22		34		6		ar
23		16		15		ar
24		38		1		1
25		7		6		1
26		7		8		2
27		35		3		ar
28		12		13		ar
29		6		5		ar
30		31		32		2
31		31		29		ar
32		27		24		1
33		36		1		1
34		23		28		ar
35		23		24		1
36		1		37		1
37		1		2		1
38		15		28		ar
39		15		14		1
40		13		29		ar
41		13		14		1
42		29		30		1
43		3		2		1
44		3		4		ar
45		5		4		ar
46		5		40		1
47		28		47		1
48		24		25		1
49		24		26		1
50		14		44		1
51		14		43		1
52		49		30		1
53		4		39		1
54		48		30		1
55		30		50		1

