@<TRIPOS>MOLECULE
WYP-2008-BMC-3887-5M
 60 63 0 0 0
SMALL
MULLIKEN_CHARGES
****
Gaussian 16 #p B3LYP/6-31G* opt
@<TRIPOS>ATOM
1		C		3.6950		3.3916		1.8213		C.3		1		UNL1		-0.4511
2		C		3.0706		4.1655		0.6444		C.3		1		UNL1		-0.3269
3		C		1.6609		3.7266		0.3300		C.ar		1		UNL1		0.0433
4		C		1.2839		2.8909		-0.6949		C.ar		1		UNL1		0.2418
5		C		2.2511		2.2693		-1.6858		C.3		1		UNL1		-0.4205
6		C		2.7826		0.9127		-1.2378		C.ar		1		UNL1		0.1748
7		C		1.9191		-0.1745		-1.0392		C.ar		1		UNL1		-0.1990
8		C		2.4173		-1.4108		-0.6373		C.ar		1		UNL1		-0.1843
9		C		3.7914		-1.6131		-0.4209		C.ar		1		UNL1		0.0903
10		C		4.3174		-2.9350		0.0047		C.ar		1		UNL1		0.0902
11		C		5.3816		-3.0310		0.9178		C.ar		1		UNL1		-0.1745
12		C		5.8773		-4.2719		1.3154		C.ar		1		UNL1		-0.1339
13		C		5.3187		-5.4474		0.8105		C.ar		1		UNL1		-0.1277
14		C		4.2599		-5.3689		-0.0962		C.ar		1		UNL1		-0.1341
15		C		3.7661		-4.1276		-0.4946		C.ar		1		UNL1		-0.1740
16		C		4.6497		-0.5214		-0.6240		C.ar		1		UNL1		-0.1764
17		C		4.1519		0.7182		-1.0238		C.ar		1		UNL1		-0.1961
18		N		-0.0301		2.5106		-0.9164		N.ar		1		UNL1		-0.5071
19		C		-0.9391		2.9368		-0.1023		C.ar		1		UNL1		0.3430
20		S		-2.6686		2.5151		-0.2792		S.3		1		UNL1		0.1566
21		C		-2.5799		1.2270		-1.5919		C.3		1		UNL1		-0.5493
22		C		-2.6163		-0.1909		-1.0152		C.2		1		UNL1		0.4204
23		O		-1.5787		-0.8382		-0.9655		O.2		1		UNL1		-0.4511
24		C		-3.9055		-0.7531		-0.5358		C.ar		1		UNL1		0.0826
25		C		-5.1313		-0.0629		-0.6006		C.ar		1		UNL1		-0.1819
26		C		-6.3019		-0.6442		-0.1404		C.ar		1		UNL1		-0.1780
27		C		-6.2797		-1.9409		0.4002		C.ar		1		UNL1		0.3894
28		O		-7.4759		-2.4213		0.8218		O.3		1		UNL1		-0.4983
29		C		-7.5281		-3.7272		1.3844		C.3		1		UNL1		-0.2223
30		C		-5.0665		-2.6445		0.4723		C.ar		1		UNL1		-0.1938
31		C		-3.9011		-2.0472		0.0071		C.ar		1		UNL1		-0.1657
32		N		-0.6659		3.7637		0.9422		N.ar		1		UNL1		-0.6545
33		C		0.6362		4.2320		1.2368		C.ar		1		UNL1		0.5823
34		O		0.8016		4.9842		2.1898		O.2		1		UNL1		-0.5251
35		H		3.0898		3.5190		2.7237		H		1		UNL1		0.1703
36		H		3.7684		2.3225		1.5969		H		1		UNL1		0.1565
37		H		4.7026		3.7678		2.0329		H		1		UNL1		0.1401
38		H		3.7083		4.0662		-0.2393		H		1		UNL1		0.1341
39		H		3.0412		5.2299		0.9043		H		1		UNL1		0.1655
40		H		3.0927		2.9418		-1.8725		H		1		UNL1		0.1563
41		H		1.7084		2.1560		-2.6310		H		1		UNL1		0.1713
42		H		0.8488		-0.0585		-1.1843		H		1		UNL1		0.1810
43		H		1.7205		-2.2265		-0.4655		H		1		UNL1		0.1380
44		H		5.8059		-2.1236		1.3386		H		1		UNL1		0.1311
45		H		6.6961		-4.3201		2.0289		H		1		UNL1		0.1281
46		H		5.7043		-6.4149		1.1206		H		1		UNL1		0.1266
47		H		3.8219		-6.2771		-0.5025		H		1		UNL1		0.1274
48		H		2.9593		-4.0781		-1.2205		H		1		UNL1		0.1332
49		H		5.7210		-0.6491		-0.4949		H		1		UNL1		0.1293
50		H		4.8437		1.5422		-1.1854		H		1		UNL1		0.1219
51		H		-1.6249		1.3750		-2.0995		H		1		UNL1		0.2494
52		H		-3.4057		1.4259		-2.2790		H		1		UNL1		0.1974
53		H		-5.1818		0.9407		-1.0118		H		1		UNL1		0.1384
54		H		-7.2501		-0.1186		-0.1860		H		1		UNL1		0.1490
55		H		-6.9086		-3.7992		2.2869		H		1		UNL1		0.1613
56		H		-8.5735		-3.8941		1.6481		H		1		UNL1		0.1784
57		H		-7.2089		-4.4877		0.6610		H		1		UNL1		0.1603
58		H		-5.0260		-3.6453		0.8862		H		1		UNL1		0.1434
59		H		-2.9559		-2.5776		0.0571		H		1		UNL1		0.1691
60		H		-1.3916		4.0748		1.5805		H		1		UNL1		0.3533
@<TRIPOS>BOND
1		41		5		1
2		52		21		1
3		51		21		1
4		40		5		1
5		5		6		1
6		5		4		1
7		21		22		1
8		21		20		1
9		6		7		ar
10		6		17		ar
11		48		15		1
12		50		17		1
13		42		7		1
14		7		8		ar
15		17		16		ar
16		22		23		2
17		22		24		1
18		53		25		1
19		18		4		ar
20		18		19		ar
21		4		3		ar
22		8		43		1
23		8		9		ar
24		16		49		1
25		16		9		ar
26		25		24		ar
27		25		26		ar
28		24		31		ar
29		47		14		1
30		15		14		ar
31		15		10		ar
32		9		10		1
33		20		19		1
34		38		2		1
35		54		26		1
36		26		27		ar
37		19		32		ar
38		14		13		ar
39		10		11		ar
40		31		59		1
41		31		30		ar
42		3		2		1
43		3		33		ar
44		27		30		ar
45		27		28		1
46		30		58		1
47		2		39		1
48		2		1		1
49		57		29		1
50		13		46		1
51		13		12		ar
52		28		29		1
53		11		12		ar
54		11		44		1
55		32		33		ar
56		32		60		1
57		33		34		2
58		12		45		1
59		29		56		1
60		29		55		1
61		36		1		1
62		1		37		1
63		1		35		1

