@<TRIPOS>MOLECULE
WYP-2008-BMC-3887-5J
 50 52 0 0 0
SMALL
MULLIKEN_CHARGES
****
Gaussian 16 #p B3LYP/6-31G* opt
@<TRIPOS>ATOM
1		C		2.8031		3.6273		-1.6628		C.3		1		UNL1		-0.4460
2		C		2.8586		2.9515		-0.2800		C.3		1		UNL1		-0.3312
3		C		1.7600		1.9366		-0.0750		C.ar		1		UNL1		0.0502
4		C		1.8978		0.5793		-0.2392		C.ar		1		UNL1		0.1892
5		C		3.1898		-0.0729		-0.6787		C.3		1		UNL1		-0.4074
6		C		4.1334		-0.4932		0.4395		C.ar		1		UNL1		0.1473
7		C		3.8350		-0.2956		1.7942		C.ar		1		UNL1		-0.1701
8		C		4.7131		-0.6893		2.8041		C.ar		1		UNL1		-0.1280
9		C		5.9246		-1.2970		2.4794		C.ar		1		UNL1		-0.1292
10		C		6.2519		-1.5090		1.1403		C.ar		1		UNL1		-0.1471
11		C		5.3601		-1.1088		0.1485		C.ar		1		UNL1		0.0239
12		BR		5.8605		-1.4253		-1.6792		Br		1		UNL1		-0.1355
13		N		0.8755		-0.3215		-0.0097		N.ar		1		UNL1		-0.4952
14		C		-0.2876		0.1596		0.3092		C.ar		1		UNL1		0.3152
15		S		-1.5681		-1.0720		0.5245		S.3		1		UNL1		0.2010
16		C		-2.8209		-0.2319		1.5897		C.3		1		UNL1		-0.5659
17		C		-3.7716		0.6613		0.7968		C.2		1		UNL1		0.4270
18		O		-3.4000		1.8047		0.5280		O.2		1		UNL1		-0.4780
19		C		-5.0893		0.1622		0.3546		C.ar		1		UNL1		0.0837
20		C		-5.9448		1.0590		-0.3226		C.ar		1		UNL1		-0.1565
21		C		-7.1885		0.6580		-0.7672		C.ar		1		UNL1		-0.1707
22		C		-7.6197		-0.6662		-0.5567		C.ar		1		UNL1		0.3926
23		O		-8.8520		-0.9622		-1.0312		O.3		1		UNL1		-0.4937
24		C		-9.3540		-2.2840		-0.8635		C.3		1		UNL1		-0.2242
25		C		-6.7816		-1.5743		0.1071		C.ar		1		UNL1		-0.1994
26		C		-5.5327		-1.1535		0.5572		C.ar		1		UNL1		-0.1845
27		N		-0.5494		1.4836		0.4466		N.ar		1		UNL1		-0.6650
28		C		0.4508		2.4731		0.2796		C.ar		1		UNL1		0.5725
29		O		0.1644		3.6558		0.4237		O.2		1		UNL1		-0.5227
30		H		3.5980		4.3758		-1.7578		H		1		UNL1		0.1442
31		H		1.8419		4.1313		-1.8002		H		1		UNL1		0.1726
32		H		2.9273		2.8961		-2.4702		H		1		UNL1		0.1412
33		H		3.8378		2.4867		-0.1274		H		1		UNL1		0.1440
34		H		2.7472		3.7251		0.4880		H		1		UNL1		0.1672
35		H		3.7321		0.5851		-1.3661		H		1		UNL1		0.1799
36		H		2.9245		-0.9643		-1.2587		H		1		UNL1		0.1921
37		H		2.8941		0.1759		2.0582		H		1		UNL1		0.1417
38		H		4.4471		-0.5195		3.8437		H		1		UNL1		0.1346
39		H		6.6160		-1.6069		3.2579		H		1		UNL1		0.1367
40		H		7.1889		-1.9797		0.8631		H		1		UNL1		0.1521
41		H		-3.3254		-1.0429		2.1171		H		1		UNL1		0.2010
42		H		-2.3039		0.3815		2.3319		H		1		UNL1		0.2180
43		H		-5.6005		2.0747		-0.4851		H		1		UNL1		0.1766
44		H		-7.8536		1.3414		-1.2852		H		1		UNL1		0.1555
45		H		-10.3448		-2.2836		-1.3196		H		1		UNL1		0.1821
46		H		-9.4410		-2.5460		0.1981		H		1		UNL1		0.1612
47		H		-8.7184		-3.0194		-1.3718		H		1		UNL1		0.1630
48		H		-7.0901		-2.5993		0.2744		H		1		UNL1		0.1449
49		H		-4.9028		-1.8809		1.0589		H		1		UNL1		0.1424
50		H		-1.5078		1.8301		0.5801		H		1		UNL1		0.3967
@<TRIPOS>BOND
1		32		1		1
2		31		1		1
3		30		1		1
4		12		11		1
5		1		2		1
6		47		24		1
7		35		5		1
8		45		24		1
9		44		21		1
10		36		5		1
11		23		24		1
12		23		22		1
13		24		46		1
14		21		22		ar
15		21		20		ar
16		5		4		1
17		5		6		1
18		22		25		ar
19		43		20		1
20		20		19		ar
21		2		33		1
22		2		3		1
23		2		34		1
24		4		3		ar
25		4		13		ar
26		3		28		ar
27		13		14		ar
28		25		48		1
29		25		26		ar
30		11		6		ar
31		11		10		ar
32		28		29		2
33		28		27		ar
34		14		27		ar
35		14		15		1
36		19		26		ar
37		19		17		1
38		6		7		ar
39		27		50		1
40		15		16		1
41		18		17		2
42		26		49		1
43		17		16		1
44		40		10		1
45		10		9		ar
46		16		41		1
47		16		42		1
48		7		37		1
49		7		8		ar
50		9		8		ar
51		9		39		1
52		8		38		1

