@<TRIPOS>MOLECULE
WYP-2008-BMC-3887-5G
 47 49 0 0 0
SMALL
MULLIKEN_CHARGES
****
Gaussian 16 #p B3LYP/6-31G* opt
@<TRIPOS>ATOM
1		C		-8.3695		-2.5447		0.2929		C.3		1		UNL1		-0.2238
2		O		-7.9527		-1.2716		0.7747		O.3		1		UNL1		-0.4940
3		C		-6.7587		-0.7788		0.3698		C.ar		1		UNL1		0.3923
4		C		-5.8833		-1.4326		-0.5096		C.ar		1		UNL1		-0.1995
5		C		-4.6806		-0.8240		-0.8603		C.ar		1		UNL1		-0.1846
6		C		-4.3207		0.4308		-0.3461		C.ar		1		UNL1		0.0835
7		C		-3.0548		1.1193		-0.6713		C.2		1		UNL1		0.4275
8		O		-2.7552		2.1873		-0.1359		O.2		1		UNL1		-0.4771
9		C		-2.0705		0.5190		-1.6718		C.3		1		UNL1		-0.5660
10		S		-0.7258		-0.4530		-0.8615		S.3		1		UNL1		0.2013
11		C		0.4736		0.7871		-0.3861		C.ar		1		UNL1		0.3176
12		N		1.6828		0.3370		-0.2292		N.ar		1		UNL1		-0.5067
13		C		2.6395		1.2351		0.1781		C.ar		1		UNL1		0.2569
14		C		4.0397		0.6714		0.3848		C.3		1		UNL1		-0.4618
15		C		4.1558		-0.8263		0.2388		C.ar		1		UNL1		0.2108
16		C		3.9569		-1.6992		1.3216		C.ar		1		UNL1		-0.1175
17		CL		3.5164		-1.0501		2.9008		Cl		1		UNL1		-0.0139
18		C		4.0859		-3.0823		1.2150		C.ar		1		UNL1		-0.1259
19		C		4.4225		-3.6402		-0.0154		C.ar		1		UNL1		-0.1240
20		C		4.6225		-2.8198		-1.1223		C.ar		1		UNL1		-0.1261
21		C		4.4853		-1.4404		-0.9810		C.ar		1		UNL1		-0.1150
22		CL		4.7387		-0.4557		-2.4215		Cl		1		UNL1		-0.0150
23		C		2.3992		2.5743		0.3728		C.ar		1		UNL1		0.0590
24		C		3.4550		3.5620		0.7901		C.3		1		UNL1		-0.5412
25		C		1.0467		3.0804		0.1876		C.ar		1		UNL1		0.5673
26		O		0.6638		4.2345		0.3359		O.2		1		UNL1		-0.5255
27		N		0.1147		2.0784		-0.1884		N.ar		1		UNL1		-0.6624
28		C		-5.2124		1.0691		0.5437		C.ar		1		UNL1		-0.1565
29		C		-6.4113		0.4813		0.8941		C.ar		1		UNL1		-0.1708
30		H		-8.4727		-2.5439		-0.7992		H		1		UNL1		0.1610
31		H		-7.6699		-3.3340		0.5943		H		1		UNL1		0.1625
32		H		-9.3430		-2.7289		0.7492		H		1		UNL1		0.1817
33		H		-6.1273		-2.4051		-0.9202		H		1		UNL1		0.1442
34		H		-4.0198		-1.3579		-1.5354		H		1		UNL1		0.1422
35		H		-1.6227		1.3306		-2.2508		H		1		UNL1		0.2195
36		H		-2.5337		-0.1772		-2.3725		H		1		UNL1		0.2003
37		H		4.3887		0.9659		1.3800		H		1		UNL1		0.1887
38		H		4.7163		1.1573		-0.3268		H		1		UNL1		0.1908
39		H		3.9220		-3.7056		2.0868		H		1		UNL1		0.1569
40		H		4.5272		-4.7168		-0.1123		H		1		UNL1		0.1450
41		H		4.8805		-3.2371		-2.0892		H		1		UNL1		0.1566
42		H		4.2937		3.5865		0.0825		H		1		UNL1		0.1571
43		H		3.8725		3.3211		1.7769		H		1		UNL1		0.1606
44		H		3.0151		4.5600		0.8402		H		1		UNL1		0.1951
45		H		-0.8702		2.3705		-0.2141		H		1		UNL1		0.3970
46		H		-4.9322		2.0365		0.9466		H		1		UNL1		0.1767
47		H		-7.1038		0.9664		1.5744		H		1		UNL1		0.1551
@<TRIPOS>BOND
1		22		21		1
2		36		9		1
3		35		9		1
4		41		20		1
5		9		10		1
6		9		7		1
7		34		5		1
8		20		21		ar
9		20		19		ar
10		21		15		ar
11		33		4		1
12		10		11		1
13		5		4		ar
14		5		6		ar
15		30		1		1
16		7		6		1
17		7		8		2
18		4		3		ar
19		11		12		ar
20		11		27		ar
21		6		28		ar
22		38		14		1
23		12		13		ar
24		45		27		1
25		27		25		ar
26		40		19		1
27		19		18		ar
28		42		24		1
29		13		23		ar
30		13		14		1
31		25		26		2
32		25		23		ar
33		15		14		1
34		15		16		ar
35		1		31		1
36		1		32		1
37		1		2		1
38		3		2		1
39		3		29		ar
40		23		24		1
41		14		37		1
42		28		29		ar
43		28		46		1
44		24		44		1
45		24		43		1
46		29		47		1
47		18		16		ar
48		18		39		1
49		16		17		1

