@<TRIPOS>MOLECULE
WYP-2008-BMC-3887-5B
 47 49 0 0 0
SMALL
MULLIKEN_CHARGES
****
Gaussian 16 #p B3LYP/6-31G* opt
@<TRIPOS>ATOM
1		C		8.8913		2.9450		0.0780		C.3		1		UNL1		-0.2242
2		O		8.2202		2.2662		-0.9785		O.3		1		UNL1		-0.4935
3		C		7.1776		1.4577		-0.6775		C.ar		1		UNL1		0.3926
4		C		6.5608		0.8260		-1.7749		C.ar		1		UNL1		-0.1707
5		C		5.4868		-0.0172		-1.5731		C.ar		1		UNL1		-0.1565
6		C		4.9928		-0.2696		-0.2742		C.ar		1		UNL1		0.0834
7		C		3.8379		-1.1796		-0.1370		C.2		1		UNL1		0.4273
8		O		3.2812		-1.6571		-1.1266		O.2		1		UNL1		-0.4771
9		C		3.2872		-1.5460		1.2391		C.3		1		UNL1		-0.5655
10		S		1.8505		-0.5000		1.7403		S.3		1		UNL1		0.1962
11		C		0.4501		-1.2741		0.9385		C.ar		1		UNL1		0.3183
12		N		-0.6982		-1.0214		1.4925		N.ar		1		UNL1		-0.5115
13		C		-1.8227		-1.5496		0.8896		C.ar		1		UNL1		0.2291
14		C		-3.1217		-1.1585		1.5696		C.3		1		UNL1		-0.4133
15		C		-3.6906		0.1577		1.0548		C.ar		1		UNL1		0.1669
16		C		-2.9754		1.3550		1.2030		C.ar		1		UNL1		-0.1684
17		C		-3.5037		2.5562		0.7343		C.ar		1		UNL1		-0.1297
18		C		-4.7535		2.5925		0.1109		C.ar		1		UNL1		-0.1492
19		C		-5.4574		1.4009		-0.0298		C.ar		1		UNL1		0.0852
20		BR		-7.1765		1.4201		-0.8763		Br		1		UNL1		-0.1385
21		C		-4.9434		0.1901		0.4318		C.ar		1		UNL1		-0.2110
22		C		-1.7835		-2.3563		-0.2212		C.ar		1		UNL1		0.0653
23		C		-2.9994		-2.9468		-0.8870		C.3		1		UNL1		-0.5496
24		C		-0.4907		-2.6578		-0.8260		C.ar		1		UNL1		0.5665
25		O		-0.2843		-3.3522		-1.8133		O.2		1		UNL1		-0.5206
26		N		0.6038		-2.0398		-0.1683		N.ar		1		UNL1		-0.6636
27		C		5.6176		0.3667		0.8091		C.ar		1		UNL1		-0.1847
28		C		6.6971		1.2259		0.6199		C.ar		1		UNL1		-0.1995
29		H		8.2123		3.6204		0.6127		H		1		UNL1		0.1627
30		H		9.3378		2.2369		0.7869		H		1		UNL1		0.1614
31		H		9.6806		3.5270		-0.3995		H		1		UNL1		0.1824
32		H		6.9489		1.0228		-2.7690		H		1		UNL1		0.1559
33		H		5.0008		-0.5041		-2.4118		H		1		UNL1		0.1773
34		H		2.9752		-2.5933		1.2225		H		1		UNL1		0.2197
35		H		4.0130		-1.4249		2.0445		H		1		UNL1		0.2013
36		H		-3.8668		-1.9489		1.4424		H		1		UNL1		0.1567
37		H		-2.9135		-1.0689		2.6416		H		1		UNL1		0.1780
38		H		-2.0021		1.3341		1.6836		H		1		UNL1		0.1570
39		H		-2.9419		3.4786		0.8546		H		1		UNL1		0.1387
40		H		-5.1712		3.5240		-0.2549		H		1		UNL1		0.1511
41		H		-5.5210		-0.7208		0.3116		H		1		UNL1		0.1481
42		H		-2.6854		-3.5209		-1.7609		H		1		UNL1		0.1965
43		H		-3.5468		-3.6204		-0.2151		H		1		UNL1		0.1574
44		H		-3.6994		-2.1700		-1.2162		H		1		UNL1		0.1676
45		H		1.5146		-2.1282		-0.6361		H		1		UNL1		0.3976
46		H		5.2627		0.2139		1.8231		H		1		UNL1		0.1419
47		H		7.1524		1.7057		1.4780		H		1		UNL1		0.1448
@<TRIPOS>BOND
1		32		4		1
2		33		5		1
3		25		24		2
4		4		5		ar
5		4		3		ar
6		42		23		1
7		5		6		ar
8		44		23		1
9		8		7		2
10		2		3		1
11		2		1		1
12		23		22		1
13		23		43		1
14		20		19		1
15		24		22		ar
16		24		26		ar
17		3		28		ar
18		45		26		1
19		31		1		1
20		6		7		1
21		6		27		ar
22		40		18		1
23		22		13		ar
24		26		11		ar
25		7		9		1
26		19		18		ar
27		19		21		ar
28		1		29		1
29		1		30		1
30		18		17		ar
31		41		21		1
32		21		15		ar
33		28		27		ar
34		28		47		1
35		17		39		1
36		17		16		ar
37		27		46		1
38		13		12		ar
39		13		14		1
40		11		12		ar
41		11		10		1
42		15		16		ar
43		15		14		1
44		16		38		1
45		34		9		1
46		9		10		1
47		9		35		1
48		36		14		1
49		14		37		1

