@<TRIPOS>MOLECULE
WYP-2008-CB-168-6M
 38 40 0 0 0
SMALL
MULLIKEN_CHARGES
****
Gaussian 16 #p B3LYP/6-31G* opt
@<TRIPOS>ATOM
1		C		3.3302		-2.0357		-2.0097		C.3		1		UNL1		-0.4428
2		C		2.3737		-2.0107		-0.8035		C.3		1		UNL1		-0.3317
3		C		2.1817		-0.6261		-0.2269		C.ar		1		UNL1		0.0158
4		C		1.1803		0.2648		-0.5497		C.ar		1		UNL1		0.2638
5		C		0.0950		-0.0353		-1.5743		C.3		1		UNL1		-0.4380
6		C		-1.3115		0.3531		-1.1512		C.ar		1		UNL1		0.1527
7		C		-1.9226		1.4421		-1.7392		C.ar		1		UNL1		-0.2018
8		C		-3.2388		1.8331		-1.3994		C.ar		1		UNL1		-0.1314
9		C		-3.9489		1.1227		-0.4621		C.ar		1		UNL1		-0.1941
10		C		-3.3692		-0.0071		0.1745		C.ar		1		UNL1		0.1429
11		C		-4.0887		-0.7581		1.1423		C.ar		1		UNL1		-0.1973
12		C		-3.5249		-1.8530		1.7562		C.ar		1		UNL1		-0.1326
13		C		-2.2064		-2.2437		1.4254		C.ar		1		UNL1		-0.1419
14		C		-1.4817		-1.5373		0.4905		C.ar		1		UNL1		-0.1949
15		C		-2.0313		-0.4018		-0.1674		C.ar		1		UNL1		0.0744
16		N		1.0717		1.5273		-0.0131		N.ar		1		UNL1		-0.5460
17		C		1.9790		1.9050		0.8441		C.ar		1		UNL1		0.6917
18		N		1.9480		3.1841		1.3576		N.pl3		1		UNL1		-0.7621
19		N		3.0116		1.1000		1.2261		N.ar		1		UNL1		-0.6744
20		C		3.2041		-0.2055		0.7194		C.ar		1		UNL1		0.5805
21		O		4.1762		-0.8536		1.0956		O.2		1		UNL1		-0.5372
22		H		2.9461		-1.4280		-2.8373		H		1		UNL1		0.1388
23		H		4.3112		-1.6435		-1.7237		H		1		UNL1		0.1672
24		H		3.4678		-3.0601		-2.3753		H		1		UNL1		0.1422
25		H		2.7932		-2.6450		-0.0154		H		1		UNL1		0.1676
26		H		1.4129		-2.4517		-1.0901		H		1		UNL1		0.1370
27		H		0.3449		0.5364		-2.4776		H		1		UNL1		0.1685
28		H		0.1277		-1.0891		-1.8634		H		1		UNL1		0.1600
29		H		-1.3766		2.0167		-2.4832		H		1		UNL1		0.1237
30		H		-3.6832		2.6963		-1.8878		H		1		UNL1		0.1266
31		H		-4.9632		1.4112		-0.1961		H		1		UNL1		0.1260
32		H		-5.1018		-0.4489		1.3899		H		1		UNL1		0.1271
33		H		-4.0880		-2.4182		2.4940		H		1		UNL1		0.1279
34		H		-1.7618		-3.1069		1.9138		H		1		UNL1		0.1293
35		H		-0.4677		-1.8465		0.2620		H		1		UNL1		0.1426
36		H		1.0683		3.6487		1.1674		H		1		UNL1		0.3532
37		H		2.2757		3.3094		2.3074		H		1		UNL1		0.3311
38		H		3.7460		1.4301		1.8430		H		1		UNL1		0.3355
@<TRIPOS>BOND
1		22		1		1
2		29		7		1
3		27		5		1
4		24		1		1
5		1		23		1
6		1		2		1
7		30		8		1
8		28		5		1
9		7		8		ar
10		7		6		ar
11		5		6		1
12		5		4		1
13		8		9		ar
14		6		15		ar
15		26		2		1
16		2		3		1
17		2		25		1
18		4		3		ar
19		4		16		ar
20		9		31		1
21		9		10		ar
22		3		20		ar
23		15		10		ar
24		15		14		ar
25		16		17		ar
26		10		11		ar
27		35		14		1
28		14		13		ar
29		20		21		2
30		20		19		ar
31		17		19		ar
32		17		18		1
33		11		32		1
34		11		12		ar
35		36		18		1
36		19		38		1
37		18		37		1
38		13		12		ar
39		13		34		1
40		12		33		1

