@<TRIPOS>MOLECULE
WYP-2008-BMC-3887-5Q
 60 63 0 0 0
SMALL
MULLIKEN_CHARGES
****
Gaussian 16 #p B3LYP/6-31G* opt
@<TRIPOS>ATOM
1		C		-3.1169		-1.1665		3.1735		C.3		1		UNL1		-0.4576
2		C		-3.2162		-1.6152		1.7022		C.3		1		UNL1		-0.3315
3		C		-2.0486		-1.1830		0.8430		C.ar		1		UNL1		0.0509
4		C		-2.0624		-0.2793		-0.1977		C.ar		1		UNL1		0.1902
5		C		-3.2692		0.4978		-0.7458		C.3		1		UNL1		-0.3025
6		C		-3.4608		1.8644		-0.0798		C.ar		1		UNL1		0.1445
7		C		-4.1224		2.8707		-0.8020		C.ar		1		UNL1		-0.1676
8		C		-4.3256		4.1356		-0.2546		C.ar		1		UNL1		-0.1311
9		C		-3.8615		4.4254		1.0312		C.ar		1		UNL1		-0.1279
10		C		-3.1931		3.4394		1.7544		C.ar		1		UNL1		-0.1366
11		C		-2.9941		2.1706		1.2023		C.ar		1		UNL1		-0.1747
12		C		-4.5584		-0.3188		-0.9140		C.ar		1		UNL1		0.1525
13		C		-4.5288		-1.4440		-1.7525		C.ar		1		UNL1		-0.1704
14		C		-5.6739		-2.2065		-1.9736		C.ar		1		UNL1		-0.1305
15		C		-6.8802		-1.8534		-1.3634		C.ar		1		UNL1		-0.1289
16		C		-6.9246		-0.7329		-0.5352		C.ar		1		UNL1		-0.1296
17		C		-5.7742		0.0294		-0.3141		C.ar		1		UNL1		-0.1900
18		N		-0.9236		0.0432		-0.9206		N.ar		1		UNL1		-0.5094
19		C		0.2012		-0.5032		-0.5809		C.ar		1		UNL1		0.3160
20		S		1.6182		0.0479		-1.5267		S.3		1		UNL1		0.1982
21		C		2.8281		-1.3377		-1.3610		C.3		1		UNL1		-0.5656
22		C		3.6334		-1.2710		-0.0660		C.2		1		UNL1		0.4274
23		O		3.1299		-1.7463		0.9528		O.2		1		UNL1		-0.4779
24		C		4.9694		-0.6415		-0.0358		C.ar		1		UNL1		0.0838
25		C		5.6869		-0.6666		1.1803		C.ar		1		UNL1		-0.1567
26		C		6.9389		-0.0938		1.2803		C.ar		1		UNL1		-0.1708
27		C		7.5172		0.5370		0.1617		C.ar		1		UNL1		0.3923
28		O		8.7455		1.0698		0.3609		O.3		1		UNL1		-0.4940
29		C		9.3913		1.7311		-0.7219		C.3		1		UNL1		-0.2239
30		C		6.8174		0.5794		-1.0531		C.ar		1		UNL1		-0.1995
31		C		5.5585		-0.0098		-1.1414		C.ar		1		UNL1		-0.1845
32		N		0.3280		-1.4065		0.4209		N.ar		1		UNL1		-0.6621
33		C		-0.7832		-1.8412		1.1783		C.ar		1		UNL1		0.5728
34		O		-0.6222		-2.6981		2.0401		O.2		1		UNL1		-0.5218
35		H		-2.1926		-1.5286		3.6298		H		1		UNL1		0.1782
36		H		-3.9607		-1.5737		3.7425		H		1		UNL1		0.1404
37		H		-3.1530		-0.0754		3.2648		H		1		UNL1		0.1396
38		H		-3.2480		-2.7121		1.6858		H		1		UNL1		0.1607
39		H		-4.1547		-1.2608		1.2786		H		1		UNL1		0.1620
40		H		-2.9452		0.7298		-1.7676		H		1		UNL1		0.1812
41		H		-4.4844		2.6543		-1.8047		H		1		UNL1		0.1312
42		H		-4.8399		4.8977		-0.8346		H		1		UNL1		0.1283
43		H		-4.0144		5.4124		1.4597		H		1		UNL1		0.1269
44		H		-2.8179		3.6536		2.7518		H		1		UNL1		0.1295
45		H		-2.4538		1.4219		1.7712		H		1		UNL1		0.1397
46		H		-3.5947		-1.7241		-2.2344		H		1		UNL1		0.1318
47		H		-5.6258		-3.0744		-2.6264		H		1		UNL1		0.1285
48		H		-7.7754		-2.4450		-1.5356		H		1		UNL1		0.1272
49		H		-7.8570		-0.4456		-0.0558		H		1		UNL1		0.1290
50		H		-5.8248		0.8994		0.3326		H		1		UNL1		0.1448
51		H		3.4450		-1.2775		-2.2589		H		1		UNL1		0.2002
52		H		2.2881		-2.2874		-1.3872		H		1		UNL1		0.2181
53		H		5.2296		-1.1494		2.0373		H		1		UNL1		0.1763
54		H		7.4987		-0.1117		2.2098		H		1		UNL1		0.1550
55		H		10.3497		2.0734		-0.3296		H		1		UNL1		0.1817
56		H		8.8087		2.5942		-1.0667		H		1		UNL1		0.1627
57		H		9.5642		1.0465		-1.5615		H		1		UNL1		0.1610
58		H		7.2402		1.0647		-1.9246		H		1		UNL1		0.1445
59		H		5.0372		0.0471		-2.0914		H		1		UNL1		0.1424
60		H		1.2458		-1.7559		0.7225		H		1		UNL1		0.3955
@<TRIPOS>BOND
1		47		14		1
2		51		21		1
3		46		13		1
4		59		31		1
5		14		13		ar
6		14		15		ar
7		58		30		1
8		41		7		1
9		40		5		1
10		13		12		ar
11		57		29		1
12		48		15		1
13		20		21		1
14		20		19		1
15		52		21		1
16		15		16		ar
17		21		22		1
18		31		30		ar
19		31		24		ar
20		56		29		1
21		30		27		ar
22		18		19		ar
23		18		4		ar
24		12		5		1
25		12		17		ar
26		42		8		1
27		7		8		ar
28		7		6		ar
29		5		4		1
30		5		6		1
31		29		55		1
32		29		28		1
33		19		32		ar
34		16		17		ar
35		16		49		1
36		17		50		1
37		8		9		ar
38		4		3		ar
39		6		11		ar
40		22		24		1
41		22		23		2
42		24		25		ar
43		27		28		1
44		27		26		ar
45		32		60		1
46		32		33		ar
47		3		33		ar
48		3		2		1
49		9		43		1
50		9		10		ar
51		33		34		2
52		25		26		ar
53		25		53		1
54		11		10		ar
55		11		45		1
56		39		2		1
57		26		54		1
58		38		2		1
59		2		1		1
60		10		44		1
61		1		37		1
62		1		35		1
63		1		36		1

