@<TRIPOS>MOLECULE
WYP-2008-BMC-3887-5E
 53 55 0 0 0
SMALL
MULLIKEN_CHARGES
****
Gaussian 16 #p B3LYP/6-31G* opt
@<TRIPOS>ATOM
1		C		-9.1636		-0.5714		-0.0172		C.3		1		UNL1		-0.2218
2		O		-8.0425		-0.7707		0.8356		O.3		1		UNL1		-0.4988
3		C		-6.7966		-0.6661		0.3088		C.ar		1		UNL1		0.3891
4		C		-6.5210		-0.3740		-1.0370		C.ar		1		UNL1		-0.1942
5		C		-5.2005		-0.2924		-1.4625		C.ar		1		UNL1		-0.1663
6		C		-4.1309		-0.4962		-0.5775		C.ar		1		UNL1		0.0812
7		C		-2.7479		-0.3928		-1.1128		C.2		1		UNL1		0.4156
8		O		-2.5293		-0.1572		-2.2918		O.2		1		UNL1		-0.4537
9		C		-1.5615		-0.5938		-0.1644		C.3		1		UNL1		-0.5500
10		S		-1.3222		0.8737		0.9250		S.3		1		UNL1		0.1577
11		C		0.3232		1.3908		0.4552		C.ar		1		UNL1		0.3416
12		N		1.0904		0.6857		-0.3138		N.ar		1		UNL1		-0.5146
13		C		2.3491		1.1821		-0.6041		C.ar		1		UNL1		0.2446
14		C		3.1696		0.2920		-1.5171		C.3		1		UNL1		-0.4145
15		C		4.0775		-0.6763		-0.7667		C.ar		1		UNL1		0.1840
16		C		3.5381		-1.6026		0.1389		C.ar		1		UNL1		-0.2419
17		C		4.3549		-2.5057		0.8201		C.ar		1		UNL1		0.1907
18		C		3.7723		-3.4956		1.8029		C.3		1		UNL1		-0.5302
19		C		5.7377		-2.4747		0.5804		C.ar		1		UNL1		-0.2383
20		C		6.3041		-1.5666		-0.3143		C.ar		1		UNL1		0.1879
21		C		7.7952		-1.5374		-0.5616		C.3		1		UNL1		-0.5306
22		C		5.4560		-0.6695		-0.9826		C.ar		1		UNL1		-0.2527
23		C		2.8334		2.3649		-0.1003		C.ar		1		UNL1		0.0616
24		C		4.2072		2.9083		-0.3932		C.3		1		UNL1		-0.5485
25		C		1.9785		3.1649		0.7663		C.ar		1		UNL1		0.5731
26		O		2.2413		4.2418		1.2870		O.2		1		UNL1		-0.5245
27		N		0.7065		2.5819		0.9878		N.ar		1		UNL1		-0.6526
28		C		-4.4257		-0.7893		0.7679		C.ar		1		UNL1		-0.1857
29		C		-5.7374		-0.8726		1.2081		C.ar		1		UNL1		-0.1783
30		H		-9.1860		-1.3095		-0.8287		H		1		UNL1		0.1599
31		H		-10.0432		-0.7013		0.6150		H		1		UNL1		0.1778
32		H		-9.1677		0.4395		-0.4437		H		1		UNL1		0.1606
33		H		-7.3230		-0.2103		-1.7474		H		1		UNL1		0.1426
34		H		-4.9703		-0.0661		-2.4985		H		1		UNL1		0.1694
35		H		-0.6467		-0.6802		-0.7543		H		1		UNL1		0.2521
36		H		-1.6770		-1.4736		0.4735		H		1		UNL1		0.1954
37		H		3.7781		0.9087		-2.1861		H		1		UNL1		0.1554
38		H		2.4655		-0.2705		-2.1404		H		1		UNL1		0.1767
39		H		2.4644		-1.6136		0.3089		H		1		UNL1		0.1320
40		H		4.1050		-4.5182		1.5877		H		1		UNL1		0.1589
41		H		4.0827		-3.2673		2.8308		H		1		UNL1		0.1630
42		H		2.6780		-3.4861		1.7782		H		1		UNL1		0.1533
43		H		6.3835		-3.1783		1.1034		H		1		UNL1		0.1124
44		H		8.2391		-0.5937		-0.2196		H		1		UNL1		0.1629
45		H		8.3034		-2.3522		-0.0362		H		1		UNL1		0.1543
46		H		8.0266		-1.6314		-1.6297		H		1		UNL1		0.1603
47		H		5.8827		0.0386		-1.6912		H		1		UNL1		0.1154
48		H		4.3804		3.7983		0.2152		H		1		UNL1		0.1930
49		H		4.3139		3.1952		-1.4478		H		1		UNL1		0.1600
50		H		4.9870		2.1717		-0.1718		H		1		UNL1		0.1697
51		H		0.0768		3.1320		1.5635		H		1		UNL1		0.3544
52		H		-3.6284		-0.9546		1.4866		H		1		UNL1		0.1425
53		H		-5.9732		-1.0970		2.2433		H		1		UNL1		0.1484
@<TRIPOS>BOND
1		34		5		1
2		8		7		2
3		37		14		1
4		38		14		1
5		33		4		1
6		47		22		1
7		46		21		1
8		14		15		1
9		14		13		1
10		5		4		ar
11		5		6		ar
12		49		24		1
13		7		6		1
14		7		9		1
15		4		3		ar
16		22		15		ar
17		22		20		ar
18		30		1		1
19		15		16		ar
20		35		9		1
21		13		12		ar
22		13		23		ar
23		6		28		ar
24		21		20		1
25		21		44		1
26		21		45		1
27		32		1		1
28		24		50		1
29		24		23		1
30		24		48		1
31		20		19		ar
32		12		11		ar
33		9		36		1
34		9		10		1
35		23		25		ar
36		1		31		1
37		1		2		1
38		16		39		1
39		16		17		ar
40		3		2		1
41		3		29		ar
42		11		10		1
43		11		27		ar
44		19		17		ar
45		19		43		1
46		25		27		ar
47		25		26		2
48		28		29		ar
49		28		52		1
50		17		18		1
51		27		51		1
52		29		53		1
53		40		18		1
54		42		18		1
55		18		41		1

