@<TRIPOS>MOLECULE
WYP-2009-EJMC-1016-5k
 48 50 0 0 0
SMALL
MULLIKEN_CHARGES
****
Gaussian 16 #p B3LYP/6-31G* opt
@<TRIPOS>ATOM
1		C		-4.5617		2.0051		0.8619		C.3		1		UNL1		-0.4475
2		C		-3.2827		1.9838		1.7198		C.3		1		UNL1		-0.3259
3		C		-2.0153		1.9054		0.9052		C.ar		1		UNL1		0.0461
4		C		-1.2284		0.7908		0.7370		C.ar		1		UNL1		0.2540
5		C		-1.5203		-0.5646		1.3798		C.3		1		UNL1		-0.4440
6		C		-2.8000		-1.2763		0.9714		C.ar		1		UNL1		0.1776
7		C		-3.8010		-1.5204		1.9243		C.ar		1		UNL1		-0.1949
8		C		-4.9787		-2.1947		1.6075		C.ar		1		UNL1		-0.1201
9		C		-5.1847		-2.6534		0.3071		C.ar		1		UNL1		-0.1307
10		C		-4.2031		-2.4454		-0.6606		C.ar		1		UNL1		-0.1432
11		C		-3.0306		-1.7714		-0.3206		C.ar		1		UNL1		0.0227
12		BR		-1.7058		-1.5735		-1.6930		Br		1		UNL1		-0.1255
13		N		-0.0494		0.7995		0.0150		N.ar		1		UNL1		-0.5184
14		C		0.3034		1.8946		-0.5836		C.ar		1		UNL1		0.3400
15		S		1.7655		2.0142		-1.5888		S.3		1		UNL1		0.1461
16		C		2.3123		0.2339		-1.6662		C.3		1		UNL1		-0.5357
17		C		3.4501		-0.1125		-0.7467		C.ar		1		UNL1		0.1820
18		C		3.2275		-0.3749		0.6163		C.ar		1		UNL1		-0.1795
19		C		4.2774		-0.7037		1.4605		C.ar		1		UNL1		-0.1715
20		C		5.5885		-0.7791		0.9633		C.ar		1		UNL1		0.3772
21		O		6.5485		-1.1109		1.8745		O.3		1		UNL1		-0.5052
22		C		7.8934		-1.1973		1.4317		C.3		1		UNL1		-0.2158
23		C		5.8286		-0.5218		-0.3905		C.ar		1		UNL1		-0.1929
24		C		4.7586		-0.1916		-1.2272		C.ar		1		UNL1		-0.1912
25		N		-0.4263		3.0415		-0.4965		N.ar		1		UNL1		-0.6519
26		C		-1.6143		3.1498		0.2575		C.ar		1		UNL1		0.5838
27		O		-2.2005		4.2253		0.3102		O.2		1		UNL1		-0.5271
28		H		-4.5465		2.8627		0.1835		H		1		UNL1		0.1728
29		H		-5.4481		2.0916		1.5008		H		1		UNL1		0.1391
30		H		-4.6574		1.0902		0.2684		H		1		UNL1		0.1521
31		H		-3.2450		2.9103		2.3050		H		1		UNL1		0.1650
32		H		-3.3282		1.1547		2.4312		H		1		UNL1		0.1296
33		H		-1.5362		-0.4408		2.4693		H		1		UNL1		0.1658
34		H		-0.6642		-1.2035		1.1421		H		1		UNL1		0.1904
35		H		-3.6440		-1.1707		2.9417		H		1		UNL1		0.1370
36		H		-5.7298		-2.3604		2.3744		H		1		UNL1		0.1387
37		H		-6.0982		-3.1781		0.0424		H		1		UNL1		0.1417
38		H		-4.3371		-2.8077		-1.6740		H		1		UNL1		0.1556
39		H		2.5902		0.0873		-2.7133		H		1		UNL1		0.1867
40		H		1.4103		-0.3444		-1.4532		H		1		UNL1		0.2332
41		H		2.2158		-0.3138		1.0067		H		1		UNL1		0.1566
42		H		4.1114		-0.9100		2.5133		H		1		UNL1		0.1395
43		H		8.0165		-1.9710		0.6621		H		1		UNL1		0.1523
44		H		8.4814		-1.4672		2.3108		H		1		UNL1		0.1711
45		H		8.2512		-0.2371		1.0372		H		1		UNL1		0.1532
46		H		6.8297		-0.5761		-0.8026		H		1		UNL1		0.1323
47		H		4.9580		0.0039		-2.2789		H		1		UNL1		0.1253
48		H		-0.1440		3.8861		-0.9837		H		1		UNL1		0.3534
@<TRIPOS>BOND
1		39		16		1
2		47		24		1
3		12		11		1
4		38		10		1
5		16		15		1
6		16		40		1
7		16		17		1
8		15		14		1
9		24		17		ar
10		24		23		ar
11		48		25		1
12		46		23		1
13		17		18		ar
14		10		11		ar
15		10		9		ar
16		14		25		ar
17		14		13		ar
18		25		26		ar
19		23		20		ar
20		11		6		ar
21		13		4		ar
22		37		9		1
23		28		1		1
24		26		27		2
25		26		3		ar
26		30		1		1
27		9		8		ar
28		18		41		1
29		18		19		ar
30		43		22		1
31		4		3		ar
32		4		5		1
33		1		29		1
34		1		2		1
35		3		2		1
36		20		19		ar
37		20		21		1
38		6		5		1
39		6		7		ar
40		45		22		1
41		34		5		1
42		5		33		1
43		22		21		1
44		22		44		1
45		19		42		1
46		8		7		ar
47		8		36		1
48		2		31		1
49		2		32		1
50		7		35		1

