@<TRIPOS>MOLECULE
WYP-2008-CB-168-6A
 50 52 0 0 0
SMALL
MULLIKEN_CHARGES
****
Gaussian 16 #p B3LYP/6-31G* opt
@<TRIPOS>ATOM
1		C		5.7425		-3.6561		1.0264		C.3		1		UNL1		-0.4430
2		C		4.5767		-2.7335		0.6574		C.3		1		UNL1		-0.2436
3		C		4.5399		-2.3871		-0.8368		C.3		1		UNL1		-0.2806
4		C		3.3864		-1.4665		-1.2439		C.3		1		UNL1		-0.1112
5		N		3.5257		-0.1449		-0.6307		N.pl3		1		UNL1		-0.6511
6		C		2.4689		0.7228		-0.5550		C.ar		1		UNL1		0.7748
7		N		1.2565		0.3338		-0.8554		N.ar		1		UNL1		-0.5632
8		C		0.2301		1.2406		-0.7008		C.ar		1		UNL1		0.2123
9		C		-1.1164		0.6601		-1.0770		C.3		1		UNL1		-0.4170
10		C		-1.8268		-0.1323		0.0164		C.ar		1		UNL1		0.1277
11		C		-1.2923		-0.2778		1.2802		C.ar		1		UNL1		-0.1927
12		C		-1.9595		-1.0129		2.2900		C.ar		1		UNL1		-0.1372
13		C		-3.1697		-1.6075		2.0319		C.ar		1		UNL1		-0.1910
14		C		-3.7647		-1.4921		0.7469		C.ar		1		UNL1		0.1376
15		C		-5.0153		-2.0995		0.4562		C.ar		1		UNL1		-0.1944
16		C		-5.5889		-1.9874		-0.7899		C.ar		1		UNL1		-0.1332
17		C		-4.9283		-1.2572		-1.8043		C.ar		1		UNL1		-0.1339
18		C		-3.7138		-0.6555		-1.5542		C.ar		1		UNL1		-0.1966
19		C		-3.0902		-0.7483		-0.2789		C.ar		1		UNL1		0.0714
20		C		0.4013		2.5377		-0.2679		C.ar		1		UNL1		0.0372
21		C		-0.6873		3.5666		-0.0671		C.3		1		UNL1		-0.3262
22		C		-1.1153		3.7224		1.4042		C.3		1		UNL1		-0.4476
23		C		1.7468		2.9827		0.0611		C.ar		1		UNL1		0.5765
24		O		2.0809		4.0925		0.4668		O.2		1		UNL1		-0.5381
25		N		2.7376		1.9925		-0.1189		N.ar		1		UNL1		-0.7004
26		H		5.7403		-3.8907		2.0966		H		1		UNL1		0.1483
27		H		5.6890		-4.6044		0.4776		H		1		UNL1		0.1446
28		H		6.7082		-3.1922		0.7898		H		1		UNL1		0.1404
29		H		3.6265		-3.2099		0.9353		H		1		UNL1		0.1406
30		H		4.6348		-1.8088		1.2453		H		1		UNL1		0.1410
31		H		5.4977		-1.9324		-1.1367		H		1		UNL1		0.1247
32		H		4.4529		-3.3094		-1.4268		H		1		UNL1		0.1457
33		H		3.3354		-1.3810		-2.3398		H		1		UNL1		0.1469
34		H		2.4270		-1.8713		-0.9141		H		1		UNL1		0.1900
35		H		4.4448		0.2740		-0.7004		H		1		UNL1		0.3185
36		H		-0.9407		-0.0046		-1.9320		H		1		UNL1		0.1737
37		H		-1.7831		1.4538		-1.4307		H		1		UNL1		0.1644
38		H		-0.3358		0.1787		1.5122		H		1		UNL1		0.1345
39		H		-1.5028		-1.1008		3.2723		H		1		UNL1		0.1280
40		H		-3.6888		-2.1727		2.8023		H		1		UNL1		0.1261
41		H		-5.5147		-2.6593		1.2438		H		1		UNL1		0.1282
42		H		-6.5465		-2.4576		-0.9970		H		1		UNL1		0.1283
43		H		-5.3821		-1.1705		-2.7880		H		1		UNL1		0.1277
44		H		-3.2256		-0.1020		-2.3495		H		1		UNL1		0.1317
45		H		-0.3069		4.5316		-0.4211		H		1		UNL1		0.1620
46		H		-1.5636		3.3247		-0.6768		H		1		UNL1		0.1354
47		H		-1.8805		4.5015		1.5021		H		1		UNL1		0.1390
48		H		-1.5290		2.7874		1.7970		H		1		UNL1		0.1479
49		H		-0.2580		4.0107		2.0202		H		1		UNL1		0.1658
50		H		3.6726		2.2796		0.1504		H		1		UNL1		0.3302
@<TRIPOS>BOND
1		43		17		1
2		44		18		1
3		33		4		1
4		36		9		1
5		17		18		ar
6		17		16		ar
7		18		19		ar
8		37		9		1
9		32		3		1
10		4		34		1
11		4		3		1
12		4		5		1
13		31		3		1
14		9		8		1
15		9		10		1
16		42		16		1
17		7		8		ar
18		7		6		ar
19		3		2		1
20		16		15		ar
21		8		20		ar
22		35		5		1
23		46		21		1
24		5		6		1
25		6		25		ar
26		45		21		1
27		19		10		ar
28		19		14		ar
29		20		21		1
30		20		23		ar
31		25		23		ar
32		25		50		1
33		21		22		1
34		10		11		ar
35		23		24		2
36		15		14		ar
37		15		41		1
38		27		1		1
39		2		29		1
40		2		1		1
41		2		30		1
42		14		13		ar
43		28		1		1
44		1		26		1
45		11		38		1
46		11		12		ar
47		22		47		1
48		22		48		1
49		22		49		1
50		13		12		ar
51		13		40		1
52		12		39		1

