@<TRIPOS>MOLECULE
WYP-2009-EJMC-1016-5C
 45 47 0 0 0
SMALL
MULLIKEN_CHARGES
****
Gaussian 16 #p B3LYP/6-31G* opt
@<TRIPOS>ATOM
1		C		-8.2793		0.5281		0.5980		C.3		1		UNL1		-0.2192
2		O		-7.4349		0.3879		-0.5354		O.3		1		UNL1		-0.5019
3		C		-6.2382		-0.2411		-0.3792		C.ar		1		UNL1		0.3805
4		C		-5.7720		-0.7831		0.8275		C.ar		1		UNL1		-0.1924
5		C		-4.5250		-1.4048		0.8719		C.ar		1		UNL1		-0.1711
6		C		-3.7187		-1.5070		-0.2673		C.ar		1		UNL1		0.1366
7		C		-2.3872		-2.2243		-0.2424		C.3		1		UNL1		-0.5463
8		S		-1.1864		-1.7550		1.0884		S.3		1		UNL1		0.1883
9		C		-0.6096		-0.1388		0.6163		C.ar		1		UNL1		0.3266
10		N		0.5013		0.2507		1.1700		N.ar		1		UNL1		-0.5121
11		C		0.9682		1.5089		0.8532		C.ar		1		UNL1		0.2296
12		C		2.2620		1.8733		1.5571		C.3		1		UNL1		-0.4107
13		C		3.5033		1.4109		0.8040		C.ar		1		UNL1		0.1633
14		C		4.4569		2.3320		0.3561		C.ar		1		UNL1		-0.1846
15		C		5.5967		1.9032		-0.3274		C.ar		1		UNL1		-0.1298
16		C		5.8044		0.5475		-0.5764		C.ar		1		UNL1		-0.1478
17		C		4.8499		-0.3636		-0.1257		C.ar		1		UNL1		0.0842
18		BR		5.1208		-2.2325		-0.4543		Br		1		UNL1		-0.1375
19		C		3.7096		0.0454		0.5573		C.ar		1		UNL1		-0.1968
20		C		0.3529		2.3533		-0.0405		C.ar		1		UNL1		0.0649
21		C		0.8761		3.7130		-0.4250		C.3		1		UNL1		-0.5484
22		C		-0.8958		1.9287		-0.6559		C.ar		1		UNL1		0.5662
23		O		-1.5893		2.5590		-1.4457		O.2		1		UNL1		-0.5271
24		N		-1.3138		0.6365		-0.2486		N.ar		1		UNL1		-0.6498
25		C		-4.2009		-0.9577		-1.4675		C.ar		1		UNL1		-0.2013
26		C		-5.4409		-0.3317		-1.5280		C.ar		1		UNL1		-0.1587
27		H		-7.7954		1.1136		1.3904		H		1		UNL1		0.1574
28		H		-9.1643		1.0602		0.2455		H		1		UNL1		0.1761
29		H		-8.5794		-0.4483		1.0002		H		1		UNL1		0.1546
30		H		-6.3664		-0.7227		1.7319		H		1		UNL1		0.1408
31		H		-4.1711		-1.8089		1.8168		H		1		UNL1		0.1485
32		H		-1.8810		-2.1461		-1.2093		H		1		UNL1		0.1962
33		H		-2.5206		-3.2943		-0.0440		H		1		UNL1		0.2069
34		H		2.3167		2.9550		1.7096		H		1		UNL1		0.1553
35		H		2.2384		1.4000		2.5451		H		1		UNL1		0.1798
36		H		4.3110		3.3918		0.5491		H		1		UNL1		0.1307
37		H		6.3299		2.6288		-0.6689		H		1		UNL1		0.1390
38		H		6.6857		0.2025		-1.1055		H		1		UNL1		0.1516
39		H		2.9787		-0.6818		0.8939		H		1		UNL1		0.1790
40		H		1.9053		3.6600		-0.7978		H		1		UNL1		0.1645
41		H		0.8676		4.4100		0.4234		H		1		UNL1		0.1589
42		H		0.2429		4.1325		-1.2095		H		1		UNL1		0.1946
43		H		-2.2261		0.3535		-0.5962		H		1		UNL1		0.3662
44		H		-3.6001		-1.0262		-2.3722		H		1		UNL1		0.1433
45		H		-5.8093		0.0980		-2.4538		H		1		UNL1		0.1523
@<TRIPOS>BOND
1		45		26		1
2		44		25		1
3		26		25		ar
4		26		3		ar
5		25		6		ar
6		23		22		2
7		42		21		1
8		32		7		1
9		38		16		1
10		40		21		1
11		37		15		1
12		22		24		ar
13		22		20		ar
14		43		24		1
15		16		15		ar
16		16		17		ar
17		2		3		1
18		2		1		1
19		18		17		1
20		21		20		1
21		21		41		1
22		3		4		ar
23		15		14		ar
24		6		7		1
25		6		5		ar
26		24		9		ar
27		7		33		1
28		7		8		1
29		17		19		ar
30		20		11		ar
31		28		1		1
32		14		36		1
33		14		13		ar
34		19		13		ar
35		19		39		1
36		1		29		1
37		1		27		1
38		9		8		1
39		9		10		ar
40		13		12		1
41		4		5		ar
42		4		30		1
43		11		10		ar
44		11		12		1
45		5		31		1
46		12		34		1
47		12		35		1

