@<TRIPOS>MOLECULE
WYP-2008-BMC-3887-5I
 49 52 0 0 0
SMALL
MULLIKEN_CHARGES
****
Gaussian 16 #p B3LYP/6-31G* opt
@<TRIPOS>ATOM
1		C		-2.7382		3.3075		-1.2097		C.3		1		UNL1		-0.5384
2		C		-1.4403		2.7168		-0.7245		C.ar		1		UNL1		0.0562
3		C		-1.1980		1.3697		-0.6109		C.ar		1		UNL1		0.2133
4		C		-2.2188		0.3240		-0.9944		C.3		1		UNL1		-0.4142
5		C		-3.1568		-0.1314		0.1203		C.ar		1		UNL1		0.1245
6		C		-3.1106		0.4177		1.3852		C.ar		1		UNL1		-0.1961
7		C		-3.9868		-0.0085		2.4129		C.ar		1		UNL1		-0.1357
8		C		-4.9144		-0.9908		2.1704		C.ar		1		UNL1		-0.1898
9		C		-5.0051		-1.5908		0.8855		C.ar		1		UNL1		0.1370
10		C		-5.9576		-2.6082		0.6124		C.ar		1		UNL1		-0.1940
11		C		-6.0427		-3.1875		-0.6332		C.ar		1		UNL1		-0.1326
12		C		-5.1706		-2.7692		-1.6641		C.ar		1		UNL1		-0.1332
13		C		-4.2350		-1.7840		-1.4316		C.ar		1		UNL1		-0.1971
14		C		-4.1179		-1.1618		-0.1579		C.ar		1		UNL1		0.0727
15		N		-0.0063		0.8449		-0.1433		N.ar		1		UNL1		-0.4982
16		C		0.9391		1.6708		0.1690		C.ar		1		UNL1		0.3419
17		S		2.5258		1.1355		0.7967		S.3		1		UNL1		0.1585
18		C		2.3997		-0.6878		0.5602		C.3		1		UNL1		-0.5524
19		C		3.3939		-1.1806		-0.4940		C.2		1		UNL1		0.4213
20		O		2.9835		-1.4879		-1.6011		O.2		1		UNL1		-0.4425
21		C		4.8448		-1.2794		-0.1453		C.ar		1		UNL1		0.0823
22		C		5.7309		-1.7149		-1.1447		C.ar		1		UNL1		-0.1546
23		C		7.0911		-1.8300		-0.8800		C.ar		1		UNL1		-0.1305
24		C		7.5864		-1.5109		0.3885		C.ar		1		UNL1		-0.1178
25		C		6.7156		-1.0769		1.3891		C.ar		1		UNL1		-0.1339
26		C		5.3508		-0.9626		1.1251		C.ar		1		UNL1		-0.1813
27		N		0.8044		3.0213		0.0680		N.ar		1		UNL1		-0.6538
28		C		-0.3808		3.6559		-0.3767		C.ar		1		UNL1		0.5733
29		O		-0.4221		4.8779		-0.4365		O.2		1		UNL1		-0.5204
30		H		-2.8129		3.2731		-2.3051		H		1		UNL1		0.1662
31		H		-3.6034		2.7788		-0.7985		H		1		UNL1		0.1666
32		H		-2.7916		4.3579		-0.9145		H		1		UNL1		0.1912
33		H		-1.6595		-0.5431		-1.3657		H		1		UNL1		0.1835
34		H		-2.8166		0.6945		-1.8361		H		1		UNL1		0.1675
35		H		-2.3873		1.1961		1.6061		H		1		UNL1		0.1309
36		H		-3.9166		0.4511		3.3951		H		1		UNL1		0.1304
37		H		-5.5913		-1.3232		2.9539		H		1		UNL1		0.1285
38		H		-6.6234		-2.9230		1.4127		H		1		UNL1		0.1299
39		H		-6.7766		-3.9650		-0.8272		H		1		UNL1		0.1304
40		H		-5.2383		-3.2287		-2.6466		H		1		UNL1		0.1305
41		H		-3.5759		-1.4818		-2.2386		H		1		UNL1		0.1339
42		H		2.5461		-1.1610		1.5339		H		1		UNL1		0.1991
43		H		1.3836		-0.8721		0.2038		H		1		UNL1		0.2565
44		H		5.3243		-1.9557		-2.1213		H		1		UNL1		0.1684
45		H		7.7687		-2.1674		-1.6595		H		1		UNL1		0.1429
46		H		8.6493		-1.6008		0.5958		H		1		UNL1		0.1423
47		H		7.0975		-0.8282		2.3753		H		1		UNL1		0.1414
48		H		4.6892		-0.6251		1.9173		H		1		UNL1		0.1404
49		H		1.5708		3.6490		0.2904		H		1		UNL1		0.3549
@<TRIPOS>BOND
1		40		12		1
2		30		1		1
3		41		13		1
4		44		22		1
5		34		4		1
6		12		13		ar
7		12		11		ar
8		45		23		1
9		20		19		2
10		13		14		ar
11		33		4		1
12		1		32		1
13		1		31		1
14		1		2		1
15		22		23		ar
16		22		21		ar
17		4		3		1
18		4		5		1
19		23		24		ar
20		39		11		1
21		2		3		ar
22		2		28		ar
23		11		10		ar
24		3		15		ar
25		19		21		1
26		19		18		1
27		29		28		2
28		28		27		ar
29		14		5		ar
30		14		9		ar
31		21		26		ar
32		15		16		ar
33		27		16		ar
34		27		49		1
35		5		6		ar
36		16		17		1
37		43		18		1
38		24		46		1
39		24		25		ar
40		18		17		1
41		18		42		1
42		10		9		ar
43		10		38		1
44		9		8		ar
45		26		25		ar
46		26		48		1
47		6		35		1
48		6		7		ar
49		25		47		1
50		8		7		ar
51		8		37		1
52		7		36		1

