@<TRIPOS>MOLECULE
WYP-2008-CB-168-6I
 47 49 0 0 0
SMALL
MULLIKEN_CHARGES
****
Gaussian 16 #p B3LYP/6-31G* opt
@<TRIPOS>ATOM
1		C		-2.9276		3.2268		-1.3859		C.3		1		UNL1		-0.4458
2		C		-2.8856		2.5985		0.0089		C.3		1		UNL1		-0.1408
3		N		-3.4310		1.2348		0.0469		N.pl3		1		UNL1		-0.4558
4		C		-4.8654		1.0764		0.2793		C.3		1		UNL1		-0.1776
5		C		-5.2353		0.8349		1.7488		C.3		1		UNL1		-0.4448
6		C		-2.5954		0.1787		-0.1885		C.ar		1		UNL1		0.7873
7		N		-1.3352		0.3956		-0.5025		N.ar		1		UNL1		-0.5837
8		C		-0.5306		-0.6923		-0.7212		C.ar		1		UNL1		0.2193
9		C		0.8960		-0.3307		-1.0744		C.3		1		UNL1		-0.4150
10		C		1.8575		-0.1950		0.1028		C.ar		1		UNL1		0.1261
11		C		1.4611		-0.4403		1.4015		C.ar		1		UNL1		-0.1954
12		C		2.3584		-0.3138		2.4896		C.ar		1		UNL1		-0.1357
13		C		3.6614		0.0619		2.2755		C.ar		1		UNL1		-0.1912
14		C		4.1233		0.3272		0.9582		C.ar		1		UNL1		0.1375
15		C		5.4669		0.7163		0.7121		C.ar		1		UNL1		-0.1945
16		C		5.9117		0.9717		-0.5651		C.ar		1		UNL1		-0.1332
17		C		5.0222		0.8473		-1.6569		C.ar		1		UNL1		-0.1339
18		C		3.7120		0.4718		-1.4517		C.ar		1		UNL1		-0.1963
19		C		3.2159		0.1994		-0.1466		C.ar		1		UNL1		0.0712
20		C		-0.9456		-2.0046		-0.6487		C.ar		1		UNL1		0.0514
21		C		-0.0531		-3.1962		-0.8878		C.3		1		UNL1		-0.5415
22		C		-2.3304		-2.2667		-0.3149		C.ar		1		UNL1		0.5632
23		O		-2.8860		-3.3559		-0.1990		O.2		1		UNL1		-0.5417
24		N		-3.0935		-1.0933		-0.0907		N.ar		1		UNL1		-0.7120
25		H		-2.5401		4.2516		-1.3508		H		1		UNL1		0.1491
26		H		-3.9496		3.2665		-1.7813		H		1		UNL1		0.1416
27		H		-2.3088		2.6472		-2.0766		H		1		UNL1		0.1759
28		H		-3.4660		3.1973		0.7205		H		1		UNL1		0.1420
29		H		-1.8565		2.5561		0.3680		H		1		UNL1		0.1921
30		H		-5.3504		1.9908		-0.0774		H		1		UNL1		0.1671
31		H		-5.2570		0.2736		-0.3579		H		1		UNL1		0.1569
32		H		-4.8873		1.6620		2.3764		H		1		UNL1		0.1628
33		H		-6.3227		0.7554		1.8602		H		1		UNL1		0.1564
34		H		-4.7848		-0.0865		2.1334		H		1		UNL1		0.1608
35		H		0.8582		0.6241		-1.6122		H		1		UNL1		0.1721
36		H		1.2966		-1.0726		-1.7762		H		1		UNL1		0.1631
37		H		0.4368		-0.7391		1.5996		H		1		UNL1		0.1334
38		H		2.0042		-0.5181		3.4966		H		1		UNL1		0.1277
39		H		4.3567		0.1609		3.1057		H		1		UNL1		0.1260
40		H		6.1429		0.8087		1.5593		H		1		UNL1		0.1280
41		H		6.9428		1.2682		-0.7375		H		1		UNL1		0.1281
42		H		5.3751		1.0494		-2.6648		H		1		UNL1		0.1275
43		H		3.0481		0.3836		-2.3052		H		1		UNL1		0.1319
44		H		0.8872		-3.1219		-0.3306		H		1		UNL1		0.1600
45		H		0.2010		-3.3139		-1.9503		H		1		UNL1		0.1541
46		H		-0.5740		-4.1033		-0.5729		H		1		UNL1		0.1872
47		H		-4.0503		-1.2808		0.1795		H		1		UNL1		0.3390
@<TRIPOS>BOND
1		42		17		1
2		43		18		1
3		27		1		1
4		45		21		1
5		26		1		1
6		36		9		1
7		17		18		ar
8		17		16		ar
9		35		9		1
10		18		19		ar
11		1		25		1
12		1		2		1
13		9		8		1
14		9		10		1
15		21		20		1
16		21		46		1
17		21		44		1
18		41		16		1
19		8		20		ar
20		8		7		ar
21		20		22		ar
22		16		15		ar
23		7		6		ar
24		31		4		1
25		22		23		2
26		22		24		ar
27		6		24		ar
28		6		3		1
29		19		10		ar
30		19		14		ar
31		24		47		1
32		30		4		1
33		2		3		1
34		2		29		1
35		2		28		1
36		3		4		1
37		10		11		ar
38		4		5		1
39		15		14		ar
40		15		40		1
41		14		13		ar
42		11		37		1
43		11		12		ar
44		5		33		1
45		5		34		1
46		5		32		1
47		13		12		ar
48		13		39		1
49		12		38		1

