@<TRIPOS>MOLECULE
WYP-2009-EJMC-1016-5W
 46 48 0 0 0
SMALL
MULLIKEN_CHARGES
****
Gaussian 16 #p B3LYP/6-31G* opt
@<TRIPOS>ATOM
1		C		-2.5554		2.0856		2.0228		C.3		1		UNL1		-0.4495
2		C		-1.9946		2.1418		0.5894		C.3		1		UNL1		-0.3364
3		C		-1.1477		0.9470		0.2246		C.ar		1		UNL1		0.0601
4		C		-1.5121		-0.0870		-0.6073		C.ar		1		UNL1		0.2356
5		C		-2.8549		-0.1927		-1.3288		C.3		1		UNL1		-0.4462
6		C		-4.1263		-0.1088		-0.5036		C.ar		1		UNL1		0.2008
7		C		-4.4235		-1.0480		0.5031		C.ar		1		UNL1		-0.1347
8		CL		-3.2974		-2.3568		0.8360		Cl		1		UNL1		0.0024
9		C		-5.5973		-1.0147		1.2533		C.ar		1		UNL1		-0.1205
10		C		-6.5413		-0.0235		0.9997		C.ar		1		UNL1		-0.1251
11		C		-6.3118		0.9124		-0.0038		C.ar		1		UNL1		-0.1182
12		C		-5.1264		0.8548		-0.7361		C.ar		1		UNL1		-0.1450
13		CL		-4.9327		2.0675		-2.0057		Cl		1		UNL1		-0.0104
14		N		-0.6664		-1.1302		-0.9340		N.ar		1		UNL1		-0.5083
15		C		0.5296		-1.1325		-0.4360		C.ar		1		UNL1		0.3290
16		S		1.5692		-2.4921		-0.9399		S.3		1		UNL1		0.2038
17		C		2.9447		-2.4961		0.2915		C.3		1		UNL1		-0.5558
18		C		3.9982		-1.4156		0.1581		C.ar		1		UNL1		0.1651
19		C		4.6116		-1.1436		-1.0752		C.ar		1		UNL1		-0.1730
20		C		5.6091		-0.1813		-1.1766		C.ar		1		UNL1		-0.1464
21		C		5.9879		0.5178		-0.0304		C.ar		1		UNL1		0.2747
22		N		7.0457		1.5380		-0.1325		N.pl3		1		UNL1		0.3833
23		O		7.5436		1.7318		-1.2405		O.2		1		UNL1		-0.3896
24		O		7.3672		2.1298		0.8966		O.2		1		UNL1		-0.3884
25		C		5.3970		0.2797		1.2055		C.ar		1		UNL1		-0.1353
26		C		4.4011		-0.6929		1.2910		C.ar		1		UNL1		-0.2102
27		N		0.9838		-0.1645		0.4023		N.ar		1		UNL1		-0.6508
28		C		0.1921		0.9410		0.7981		C.ar		1		UNL1		0.5768
29		O		0.6792		1.7834		1.5439		O.2		1		UNL1		-0.5260
30		H		-3.2177		1.2244		2.1593		H		1		UNL1		0.1468
31		H		-1.7394		2.0164		2.7476		H		1		UNL1		0.1713
32		H		-3.1287		2.9937		2.2411		H		1		UNL1		0.1434
33		H		-1.3601		3.0322		0.5052		H		1		UNL1		0.1666
34		H		-2.8093		2.2642		-0.1275		H		1		UNL1		0.1514
35		H		-2.8356		-1.1574		-1.8452		H		1		UNL1		0.2012
36		H		-2.8886		0.5768		-2.1047		H		1		UNL1		0.1944
37		H		-5.7639		-1.7647		2.0184		H		1		UNL1		0.1616
38		H		-7.4598		0.0137		1.5776		H		1		UNL1		0.1514
39		H		-7.0406		1.6834		-0.2263		H		1		UNL1		0.1621
40		H		2.5214		-2.5106		1.3002		H		1		UNL1		0.2013
41		H		3.3952		-3.4818		0.1265		H		1		UNL1		0.2180
42		H		4.2966		-1.6844		-1.9626		H		1		UNL1		0.1668
43		H		6.0941		0.0379		-2.1198		H		1		UNL1		0.1919
44		H		5.7140		0.8472		2.0716		H		1		UNL1		0.1952
45		H		3.9404		-0.8953		2.2549		H		1		UNL1		0.1588
46		H		1.9462		-0.1284		0.7214		H		1		UNL1		0.3559
@<TRIPOS>BOND
1		43		20		1
2		36		5		1
3		13		12		1
4		42		19		1
5		35		5		1
6		5		4		1
7		5		6		1
8		23		22		2
9		20		19		ar
10		20		21		ar
11		19		18		ar
12		16		15		1
13		16		17		1
14		14		4		ar
15		14		15		ar
16		12		6		ar
17		12		11		ar
18		4		3		ar
19		6		7		ar
20		15		27		ar
21		39		11		1
22		22		21		1
23		22		24		2
24		34		2		1
25		21		25		ar
26		11		10		ar
27		41		17		1
28		18		17		1
29		18		26		ar
30		3		2		1
31		3		28		ar
32		17		40		1
33		27		46		1
34		27		28		ar
35		7		8		1
36		7		9		ar
37		33		2		1
38		2		1		1
39		28		29		2
40		10		9		ar
41		10		38		1
42		25		26		ar
43		25		44		1
44		9		37		1
45		26		45		1
46		1		30		1
47		1		32		1
48		1		31		1

