@<TRIPOS>MOLECULE
WYP-2009-EJMC-1016-5U
 52 54 0 0 0
SMALL
MULLIKEN_CHARGES
****
Gaussian 16 #p B3LYP/6-31G* opt
@<TRIPOS>ATOM
1		C		-3.3916		-3.5485		1.2218		C.3		1		UNL1		-0.4503
2		C		-2.6763		-3.8371		-0.1122		C.3		1		UNL1		-0.3326
3		C		-1.4195		-3.0211		-0.3001		C.ar		1		UNL1		0.0487
4		C		-1.2872		-1.8867		-1.0681		C.ar		1		UNL1		0.2286
5		C		-2.4182		-1.2716		-1.8759		C.3		1		UNL1		-0.4214
6		C		-3.0923		-0.1144		-1.1524		C.ar		1		UNL1		0.1579
7		C		-4.4031		-0.2319		-0.6856		C.ar		1		UNL1		-0.2083
8		C		-5.0182		0.8248		-0.0073		C.ar		1		UNL1		-0.0131
9		C		-6.4072		0.6319		0.5418		C.3		1		UNL1		0.7922
10		F		-6.3868		-0.0758		1.6954		F		1		UNL1		-0.2595
11		F		-7.0176		1.8058		0.8050		F		1		UNL1		-0.2666
12		F		-7.1910		-0.0531		-0.3212		F		1		UNL1		-0.2692
13		C		-4.3343		2.0183		0.2073		C.ar		1		UNL1		-0.1966
14		C		-3.0258		2.1433		-0.2642		C.ar		1		UNL1		-0.0138
15		C		-2.2966		3.4518		-0.0998		C.3		1		UNL1		0.7918
16		F		-2.4898		4.2638		-1.1645		F		1		UNL1		-0.2580
17		F		-0.9638		3.2713		0.0210		F		1		UNL1		-0.2673
18		F		-2.7178		4.1267		0.9923		F		1		UNL1		-0.2686
19		C		-2.4075		1.0889		-0.9356		C.ar		1		UNL1		-0.1966
20		N		-0.1138		-1.1660		-1.1736		N.ar		1		UNL1		-0.5151
21		C		0.9260		-1.5835		-0.5175		C.ar		1		UNL1		0.3315
22		S		2.4005		-0.6057		-0.7043		S.3		1		UNL1		0.2298
23		C		3.6233		-1.4501		0.4037		C.3		1		UNL1		-0.5493
24		C		4.9218		-0.6825		0.3513		C.ar		1		UNL1		0.1588
25		C		5.1498		0.3861		1.2302		C.ar		1		UNL1		-0.1702
26		C		6.3417		1.1027		1.1846		C.ar		1		UNL1		-0.1466
27		C		7.3026		0.7391		0.2439		C.ar		1		UNL1		0.2765
28		N		8.5702		1.4888		0.1919		N.pl3		1		UNL1		0.3829
29		O		9.4004		1.1452		-0.6481		O.2		1		UNL1		-0.3891
30		O		8.7191		2.4108		0.9920		O.2		1		UNL1		-0.3885
31		C		7.1045		-0.3127		-0.6473		C.ar		1		UNL1		-0.1466
32		C		5.9067		-1.0189		-0.5881		C.ar		1		UNL1		-0.1714
33		N		0.9027		-2.6999		0.2575		N.ar		1		UNL1		-0.6525
34		C		-0.2560		-3.4983		0.4353		C.ar		1		UNL1		0.5804
35		O		-0.1895		-4.4848		1.1582		O.2		1		UNL1		-0.5213
36		H		-2.7237		-3.7526		2.0638		H		1		UNL1		0.1733
37		H		-3.7186		-2.5047		1.2848		H		1		UNL1		0.1476
38		H		-4.2745		-4.1888		1.3273		H		1		UNL1		0.1494
39		H		-3.3686		-3.6766		-0.9445		H		1		UNL1		0.1361
40		H		-2.3942		-4.8958		-0.1314		H		1		UNL1		0.1717
41		H		-1.9826		-0.9086		-2.8130		H		1		UNL1		0.1847
42		H		-3.1674		-2.0238		-2.1311		H		1		UNL1		0.1652
43		H		-4.9578		-1.1503		-0.8535		H		1		UNL1		0.1577
44		H		-4.8105		2.8378		0.7321		H		1		UNL1		0.1753
45		H		-1.3843		1.1896		-1.2814		H		1		UNL1		0.1825
46		H		3.2310		-1.4649		1.4253		H		1		UNL1		0.2006
47		H		3.7770		-2.4772		0.0579		H		1		UNL1		0.1976
48		H		4.3895		0.6588		1.9568		H		1		UNL1		0.1580
49		H		6.5371		1.9274		1.8587		H		1		UNL1		0.1926
50		H		7.8785		-0.5618		-1.3625		H		1		UNL1		0.1918
51		H		5.7366		-1.8414		-1.2773		H		1		UNL1		0.1556
52		H		1.7158		-3.0320		0.7624		H		1		UNL1		0.3540
@<TRIPOS>BOND
1		41		5		1
2		42		5		1
3		5		6		1
4		5		4		1
5		50		31		1
6		45		19		1
7		51		32		1
8		20		4		ar
9		20		21		ar
10		16		15		1
11		6		19		ar
12		6		7		ar
13		4		3		ar
14		39		2		1
15		19		14		ar
16		43		7		1
17		22		21		1
18		22		23		1
19		7		8		ar
20		29		28		2
21		31		32		ar
22		31		27		ar
23		32		24		ar
24		21		33		ar
25		12		9		1
26		3		2		1
27		3		34		ar
28		14		15		1
29		14		13		ar
30		40		2		1
31		2		1		1
32		15		17		1
33		15		18		1
34		8		13		ar
35		8		9		1
36		47		23		1
37		28		27		1
38		28		30		2
39		13		44		1
40		27		26		ar
41		33		34		ar
42		33		52		1
43		24		23		1
44		24		25		ar
45		23		46		1
46		34		35		2
47		9		11		1
48		9		10		1
49		26		25		ar
50		26		49		1
51		1		37		1
52		1		38		1
53		1		36		1
54		25		48		1

