@<TRIPOS>MOLECULE
WYP-2009-EJMC-1016-5E
 45 47 0 0 0
SMALL
MULLIKEN_CHARGES
****
Gaussian 16 #p B3LYP/6-31G* opt
@<TRIPOS>ATOM
1		C		5.2337		-3.1825		1.1287		C.3		1		UNL1		-0.2153
2		O		4.3874		-2.0751		0.8669		O.3		1		UNL1		-0.5032
3		C		3.1630		-2.3125		0.3134		C.ar		1		UNL1		0.3727
4		C		2.3702		-1.1785		0.0787		C.ar		1		UNL1		-0.1811
5		C		1.1077		-1.3177		-0.4822		C.ar		1		UNL1		-0.1955
6		C		0.6050		-2.5814		-0.8351		C.ar		1		UNL1		0.1857
7		C		-0.7471		-2.7218		-1.4767		C.3		1		UNL1		-0.5337
8		S		-2.1469		-3.0852		-0.2995		S.3		1		UNL1		0.1452
9		C		-2.8724		-1.4775		-0.0783		C.ar		1		UNL1		0.3406
10		N		-2.4661		-0.4200		-0.7118		N.ar		1		UNL1		-0.5172
11		C		-3.1185		0.7729		-0.4624		C.ar		1		UNL1		0.2440
12		C		-2.5328		1.9449		-1.2260		C.3		1		UNL1		-0.4078
13		C		-1.0839		2.2149		-0.8522		C.ar		1		UNL1		0.1985
14		C		-0.0831		2.2562		-1.8285		C.ar		1		UNL1		-0.1983
15		C		1.2545		2.4673		-1.4873		C.ar		1		UNL1		-0.1424
16		C		1.5893		2.6374		-0.1472		C.ar		1		UNL1		0.0731
17		BR		3.4259		2.8375		0.3482		Br		1		UNL1		-0.1276
18		C		0.6124		2.6245		0.8470		C.ar		1		UNL1		-0.1436
19		C		-0.7168		2.4150		0.4860		C.ar		1		UNL1		-0.1779
20		C		-4.1823		0.9022		0.3966		C.ar		1		UNL1		0.0372
21		C		-4.9236		2.1872		0.6739		C.3		1		UNL1		-0.5449
22		C		-4.6524		-0.2837		1.1063		C.ar		1		UNL1		0.5770
23		O		-5.5794		-0.3505		1.9043		O.2		1		UNL1		-0.5240
24		N		-3.9097		-1.4466		0.8062		N.ar		1		UNL1		-0.6521
25		C		1.4086		-3.6999		-0.5991		C.ar		1		UNL1		-0.1877
26		C		2.6766		-3.5808		-0.0265		C.ar		1		UNL1		-0.1930
27		H		5.4899		-3.7228		0.2074		H		1		UNL1		0.1511
28		H		4.7757		-3.8824		1.8404		H		1		UNL1		0.1522
29		H		6.1431		-2.7673		1.5669		H		1		UNL1		0.1711
30		H		2.7710		-0.2003		0.3260		H		1		UNL1		0.1589
31		H		0.4999		-0.4353		-0.6572		H		1		UNL1		0.1641
32		H		-0.7763		-3.5619		-2.1757		H		1		UNL1		0.1892
33		H		-1.0519		-1.8132		-1.9997		H		1		UNL1		0.2243
34		H		-3.1386		2.8411		-1.0607		H		1		UNL1		0.1670
35		H		-2.5870		1.7153		-2.2970		H		1		UNL1		0.1669
36		H		-0.3444		2.1054		-2.8730		H		1		UNL1		0.1369
37		H		2.0258		2.4801		-2.2497		H		1		UNL1		0.1567
38		H		0.8900		2.7604		1.8866		H		1		UNL1		0.1577
39		H		-1.4754		2.3820		1.2640		H		1		UNL1		0.1450
40		H		-4.2551		2.9898		1.0063		H		1		UNL1		0.1580
41		H		-5.4586		2.5504		-0.2124		H		1		UNL1		0.1637
42		H		-5.6605		2.0086		1.4597		H		1		UNL1		0.1982
43		H		-4.2051		-2.2840		1.2982		H		1		UNL1		0.3550
44		H		1.0465		-4.6903		-0.8680		H		1		UNL1		0.1238
45		H		3.2715		-4.4717		0.1394		H		1		UNL1		0.1315
@<TRIPOS>BOND
1		36		14		1
2		35		12		1
3		37		15		1
4		32		7		1
5		33		7		1
6		14		15		ar
7		14		13		ar
8		15		16		ar
9		7		6		1
10		7		8		1
11		12		34		1
12		12		13		1
13		12		11		1
14		44		25		1
15		13		19		ar
16		6		25		ar
17		6		5		ar
18		10		11		ar
19		10		9		ar
20		31		5		1
21		25		26		ar
22		5		4		ar
23		11		20		ar
24		8		9		1
25		41		21		1
26		16		17		1
27		16		18		ar
28		9		24		ar
29		26		45		1
30		26		3		ar
31		4		3		ar
32		4		30		1
33		27		1		1
34		3		2		1
35		20		21		1
36		20		22		ar
37		19		18		ar
38		19		39		1
39		21		40		1
40		21		42		1
41		24		22		ar
42		24		43		1
43		18		38		1
44		2		1		1
45		22		23		2
46		1		29		1
47		1		28		1

