@<TRIPOS>MOLECULE
WYP-2008-BMC-3887-5A
 47 49 0 0 0
SMALL
MULLIKEN_CHARGES
****
Gaussian 16 #p B3LYP/6-31G* opt
@<TRIPOS>ATOM
1		C		2.9153		4.4207		0.8813		C.3		1		UNL1		-0.2208
2		O		4.0583		3.6057		0.6533		O.3		1		UNL1		-0.4996
3		C		3.8691		2.3180		0.2678		C.ar		1		UNL1		0.3903
4		C		5.0402		1.5656		0.0608		C.ar		1		UNL1		-0.1732
5		C		4.9497		0.2454		-0.3368		C.ar		1		UNL1		-0.1610
6		C		3.6965		-0.3684		-0.5437		C.ar		1		UNL1		0.0761
7		C		3.6858		-1.7802		-0.9982		C.2		1		UNL1		0.3947
8		O		4.7195		-2.4154		-1.1605		O.2		1		UNL1		-0.4617
9		C		2.3565		-2.4826		-1.2997		C.3		1		UNL1		-0.5313
10		S		1.6642		-3.2545		0.2244		S.3		1		UNL1		0.1771
11		C		-0.0213		-2.6741		0.1836		C.ar		1		UNL1		0.3424
12		N		-0.4347		-1.7621		-0.6402		N.ar		1		UNL1		-0.5314
13		C		-1.7652		-1.3846		-0.5890		C.ar		1		UNL1		0.2582
14		C		-2.1048		-0.3079		-1.6127		C.3		1		UNL1		-0.4346
15		C		-2.9281		0.8870		-1.1664		C.ar		1		UNL1		0.1753
16		C		-4.0875		1.2332		-1.8779		C.ar		1		UNL1		-0.1968
17		C		-4.8528		2.3504		-1.5502		C.ar		1		UNL1		-0.1183
18		C		-4.4712		3.1622		-0.4824		C.ar		1		UNL1		-0.1310
19		C		-3.3226		2.8511		0.2432		C.ar		1		UNL1		-0.1444
20		C		-2.5686		1.7317		-0.1071		C.ar		1		UNL1		0.0204
21		BR		-0.9925		1.3775		0.9291		Br		1		UNL1		-0.1205
22		C		-2.6809		-1.9593		0.2567		C.ar		1		UNL1		0.0526
23		C		-4.1502		-1.6367		0.3067		C.3		1		UNL1		-0.5280
24		C		-2.2213		-2.9680		1.2053		C.ar		1		UNL1		0.5786
25		O		-2.8971		-3.5582		2.0380		O.2		1		UNL1		-0.5190
26		N		-0.8421		-3.2608		1.0957		N.ar		1		UNL1		-0.6536
27		C		2.5373		0.3901		-0.3266		C.ar		1		UNL1		-0.2052
28		C		2.6152		1.7232		0.0743		C.ar		1		UNL1		-0.2181
29		H		2.3126		4.5288		-0.0292		H		1		UNL1		0.1593
30		H		3.3017		5.3968		1.1790		H		1		UNL1		0.1743
31		H		2.2876		4.0157		1.6848		H		1		UNL1		0.1603
32		H		6.0001		2.0470		0.2191		H		1		UNL1		0.1455
33		H		5.8439		-0.3460		-0.5031		H		1		UNL1		0.1654
34		H		1.5763		-1.8245		-1.6878		H		1		UNL1		0.2325
35		H		2.5625		-3.2866		-2.0077		H		1		UNL1		0.2111
36		H		-1.1464		0.0440		-2.0099		H		1		UNL1		0.1889
37		H		-2.6275		-0.7840		-2.4530		H		1		UNL1		0.1713
38		H		-4.3911		0.6025		-2.7100		H		1		UNL1		0.1376
39		H		-5.7442		2.5827		-2.1256		H		1		UNL1		0.1416
40		H		-5.0593		4.0342		-0.2110		H		1		UNL1		0.1443
41		H		-3.0068		3.4704		1.0757		H		1		UNL1		0.1557
42		H		-4.5545		-1.4021		-0.6814		H		1		UNL1		0.1500
43		H		-4.6905		-2.4917		0.7204		H		1		UNL1		0.1877
44		H		-4.3535		-0.7776		0.9585		H		1		UNL1		0.1763
45		H		-0.5030		-3.9798		1.7273		H		1		UNL1		0.3568
46		H		1.5508		-0.0457		-0.4550		H		1		UNL1		0.1754
47		H		1.6981		2.2776		0.2332		H		1		UNL1		0.1487
@<TRIPOS>BOND
1		38		16		1
2		37		14		1
3		39		17		1
4		36		14		1
5		35		9		1
6		16		17		ar
7		16		15		ar
8		34		9		1
9		14		15		1
10		14		13		1
11		17		18		ar
12		9		7		1
13		9		10		1
14		15		20		ar
15		8		7		2
16		7		6		1
17		42		23		1
18		12		13		ar
19		12		11		ar
20		13		22		ar
21		6		5		ar
22		6		27		ar
23		33		5		1
24		18		40		1
25		18		19		ar
26		46		27		1
27		5		4		ar
28		27		28		ar
29		20		19		ar
30		20		21		1
31		29		1		1
32		4		32		1
33		4		3		ar
34		28		47		1
35		28		3		ar
36		11		10		1
37		11		26		ar
38		19		41		1
39		22		23		1
40		22		24		ar
41		3		2		1
42		23		43		1
43		23		44		1
44		2		1		1
45		1		30		1
46		1		31		1
47		26		24		ar
48		26		45		1
49		24		25		2

