@<TRIPOS>MOLECULE
WZY-2015-BMC-4248-3-3s
 54 56 0 0 0
SMALL
MULLIKEN_CHARGES
****
Gaussian 16 #p B3LYP/6-31G* opt
@<TRIPOS>ATOM
1		C		-4.3809		3.4309		-0.1572		C.3		1		UNL1		-0.5442
2		C		-4.6803		1.9587		-0.0135		C.ar		1		UNL1		0.1687
3		C		-5.9090		1.4378		-0.4226		C.ar		1		UNL1		-0.2285
4		C		-6.1801		0.0723		-0.3155		C.ar		1		UNL1		-0.1423
5		S		-7.7791		-0.5575		-0.8458		S.O2		1		UNL1		1.1658
6		N		-8.7983		-0.5267		0.4957		N.3		1		UNL1		-0.7856
7		O		-7.6022		-1.9719		-1.1682		O.2		1		UNL1		-0.5243
8		O		-8.3391		0.4147		-1.7830		O.2		1		UNL1		-0.5258
9		C		-5.2321		-0.8039		0.2118		C.ar		1		UNL1		-0.1696
10		C		-4.0119		-0.2964		0.6483		C.ar		1		UNL1		-0.1579
11		C		-3.7192		1.0696		0.5218		C.ar		1		UNL1		0.2629
12		N		-2.4842		1.5954		0.9590		N.am		1		UNL1		-0.7006
13		C		-1.1811		1.1328		0.8287		C.2		1		UNL1		0.5977
14		O		-0.2749		1.7137		1.4020		O.2		1		UNL1		-0.4769
15		C		-0.9204		-0.0504		-0.0950		C.3		1		UNL1		-0.5548
16		S		-0.5456		-1.5896		0.8345		S.3		1		UNL1		0.1910
17		C		1.2360		-1.5850		0.8734		C.ar		1		UNL1		0.2647
18		N		1.7405		-2.5349		1.6700		N.ar		1		UNL1		-0.4246
19		C		3.0758		-2.5789		1.7183		C.ar		1		UNL1		0.0520
20		C		3.9011		-1.7093		1.0110		C.ar		1		UNL1		-0.2058
21		C		3.2373		-0.7745		0.2062		C.ar		1		UNL1		0.5284
22		O		3.8660		0.1429		-0.5758		O.3		1		UNL1		-0.5252
23		C		5.2565		0.2499		-0.5496		C.ar		1		UNL1		0.1912
24		C		5.8362		1.1314		0.3747		C.ar		1		UNL1		0.1748
25		C		4.9860		1.8816		1.3694		C.3		1		UNL1		-0.5338
26		C		7.2223		1.2904		0.3284		C.ar		1		UNL1		-0.2277
27		C		7.9927		0.5954		-0.6157		C.ar		1		UNL1		0.1674
28		C		9.4156		0.7716		-0.6471		C.1		1		UNL1		0.2325
29		N		10.5701		0.9123		-0.6711		N.1		1		UNL1		-0.4759
30		C		7.3742		-0.2650		-1.5351		C.ar		1		UNL1		-0.2279
31		C		5.9907		-0.4490		-1.5186		C.ar		1		UNL1		0.1708
32		C		5.3006		-1.3549		-2.5079		C.3		1		UNL1		-0.5310
33		N		1.9122		-0.7141		0.1287		N.ar		1		UNL1		-0.4606
34		H		-3.4354		3.5970		-0.6863		H		1		UNL1		0.1797
35		H		-4.2963		3.9315		0.8178		H		1		UNL1		0.1637
36		H		-5.1759		3.9366		-0.7117		H		1		UNL1		0.1749
37		H		-6.6523		2.0933		-0.8663		H		1		UNL1		0.1763
38		H		-8.9766		0.4159		0.8326		H		1		UNL1		0.3485
39		H		-8.4953		-1.1567		1.2340		H		1		UNL1		0.3496
40		H		-5.4451		-1.8656		0.2788		H		1		UNL1		0.1829
41		H		-3.2900		-0.9598		1.1128		H		1		UNL1		0.1773
42		H		-2.5099		2.4791		1.4565		H		1		UNL1		0.3410
43		H		-0.0248		0.1870		-0.6740		H		1		UNL1		0.2512
44		H		-1.7515		-0.2700		-0.7661		H		1		UNL1		0.1999
45		H		3.5069		-3.3462		2.3586		H		1		UNL1		0.1646
46		H		4.9802		-1.7599		1.0782		H		1		UNL1		0.1666
47		H		5.5820		2.6258		1.9044		H		1		UNL1		0.1649
48		H		4.5461		1.2060		2.1130		H		1		UNL1		0.1769
49		H		4.1536		2.3913		0.8735		H		1		UNL1		0.1939
50		H		7.7103		1.9638		1.0260		H		1		UNL1		0.1593
51		H		7.9788		-0.7883		-2.2691		H		1		UNL1		0.1588
52		H		6.0126		-1.7409		-3.2422		H		1		UNL1		0.1658
53		H		4.5056		-0.8230		-3.0413		H		1		UNL1		0.1864
54		H		4.8324		-2.2122		-2.0094		H		1		UNL1		0.1731
@<TRIPOS>BOND
1		52		32		1
2		53		32		1
3		32		54		1
4		32		31		1
5		51		30		1
6		8		5		2
7		30		31		ar
8		30		27		ar
9		31		23		ar
10		7		5		2
11		37		3		1
12		5		4		1
13		5		6		1
14		44		15		1
15		36		1		1
16		34		1		1
17		43		15		1
18		29		28		3
19		28		27		1
20		27		26		ar
21		22		23		1
22		22		21		1
23		23		24		ar
24		3		4		ar
25		3		2		ar
26		4		9		ar
27		1		2		1
28		1		35		1
29		15		13		1
30		15		16		1
31		2		11		ar
32		33		21		ar
33		33		17		ar
34		21		20		ar
35		9		40		1
36		9		10		ar
37		26		24		ar
38		26		50		1
39		24		25		1
40		6		38		1
41		6		39		1
42		11		10		ar
43		11		12		1
44		10		41		1
45		13		12		1
46		13		14		2
47		16		17		1
48		17		18		ar
49		49		25		1
50		12		42		1
51		20		46		1
52		20		19		ar
53		25		47		1
54		25		48		1
55		18		19		ar
56		19		45		1

