@<TRIPOS>MOLECULE
WZY-2015-EJMC-1-4-7l
 62 65 0 0 0
SMALL
MULLIKEN_CHARGES
****
Gaussian 16 #p B3LYP/6-31G* opt
@<TRIPOS>ATOM
1		C		6.8152		0.3405		2.6191		C.3		1		UNL1		-0.5314
2		C		7.3905		0.6388		1.2572		C.ar		1		UNL1		0.1725
3		C		8.7673		0.6479		1.0298		C.ar		1		UNL1		-0.2283
4		C		9.2812		0.9415		-0.2422		C.ar		1		UNL1		0.1655
5		C		10.6989		0.9455		-0.4578		C.1		1		UNL1		0.2308
6		N		11.8490		0.9462		-0.6333		N.1		1		UNL1		-0.4796
7		C		8.4111		1.2388		-1.3018		C.ar		1		UNL1		-0.2283
8		C		7.0288		1.2386		-1.1099		C.ar		1		UNL1		0.1723
9		C		6.0742		1.5689		-2.2299		C.3		1		UNL1		-0.5311
10		C		6.5496		0.9259		0.1712		C.ar		1		UNL1		0.1998
11		O		5.1809		1.0083		0.4009		O.3		1		UNL1		-0.5360
12		C		4.3890		-0.0970		0.2470		C.ar		1		UNL1		0.5328
13		C		4.8829		-1.3518		-0.1437		C.ar		1		UNL1		-0.2295
14		C		3.9187		-2.3485		-0.2551		C.ar		1		UNL1		0.0584
15		N		2.6187		-2.1656		-0.0157		N.ar		1		UNL1		-0.4889
16		C		2.2769		-0.9159		0.3648		C.ar		1		UNL1		0.6752
17		N		0.9732		-0.6721		0.6652		N.3		1		UNL1		-0.6497
18		C		-0.1182		-1.6157		0.4435		C.3		1		UNL1		0.0744
19		C		-1.3120		-1.2972		1.3767		C.3		1		UNL1		-0.3144
20		C		-2.3868		-0.4634		0.6644		C.3		1		UNL1		-0.1365
21		N		-2.9391		-1.1412		-0.5270		N.3		1		UNL1		-0.3746
22		C		-4.2770		-1.6546		-0.3789		C.3		1		UNL1		-0.2307
23		C		-5.3426		-0.5473		-0.2750		C.2		1		UNL1		0.6231
24		O		-5.0763		0.6401		-0.2036		O.2		1		UNL1		-0.4843
25		N		-6.6263		-1.0577		-0.2501		N.am		1		UNL1		-0.7247
26		C		-7.8544		-0.3764		-0.1364		C.ar		1		UNL1		0.3622
27		C		-9.0260		-1.1504		-0.1252		C.ar		1		UNL1		-0.1935
28		C		-10.2701		-0.5382		-0.0144		C.ar		1		UNL1		-0.1320
29		C		-10.3774		0.8492		0.0874		C.ar		1		UNL1		-0.1287
30		C		-9.2038		1.6001		0.0739		C.ar		1		UNL1		-0.0805
31		CL		-9.3118		3.3525		0.2005		Cl		1		UNL1		-0.0224
32		C		-7.9419		1.0207		-0.0362		C.ar		1		UNL1		-0.1616
33		C		-2.0309		-2.1169		-1.1414		C.3		1		UNL1		-0.1274
34		C		-0.5861		-1.6317		-1.0345		C.3		1		UNL1		-0.2941
35		N		3.1147		0.1362		0.5005		N.ar		1		UNL1		-0.5403
36		H		6.2450		-0.5962		2.6153		H		1		UNL1		0.1752
37		H		6.1270		1.1308		2.9372		H		1		UNL1		0.1859
38		H		7.6097		0.2493		3.3649		H		1		UNL1		0.1615
39		H		9.4499		0.4305		1.8455		H		1		UNL1		0.1557
40		H		8.8195		1.4757		-2.2793		H		1		UNL1		0.1558
41		H		6.6184		1.8909		-3.1219		H		1		UNL1		0.1617
42		H		5.3834		2.3662		-1.9359		H		1		UNL1		0.1860
43		H		5.4618		0.7008		-2.5017		H		1		UNL1		0.1747
44		H		5.9287		-1.5348		-0.3512		H		1		UNL1		0.1529
45		H		4.2092		-3.3533		-0.5597		H		1		UNL1		0.1482
46		H		0.7531		0.3028		0.8226		H		1		UNL1		0.3333
47		H		0.2836		-2.6009		0.6921		H		1		UNL1		0.1692
48		H		-0.9573		-0.7790		2.2755		H		1		UNL1		0.1508
49		H		-1.7569		-2.2393		1.7201		H		1		UNL1		0.1458
50		H		-1.9729		0.5087		0.3630		H		1		UNL1		0.1486
51		H		-3.2045		-0.2322		1.3510		H		1		UNL1		0.1537
52		H		-4.4058		-2.3345		0.4927		H		1		UNL1		0.1340
53		H		-4.5100		-2.2605		-1.2655		H		1		UNL1		0.1625
54		H		-6.7062		-2.0646		-0.3152		H		1		UNL1		0.3317
55		H		-8.9595		-2.2334		-0.2036		H		1		UNL1		0.1254
56		H		-11.1687		-1.1485		-0.0070		H		1		UNL1		0.1413
57		H		-11.3421		1.3361		0.1742		H		1		UNL1		0.1530
58		H		-7.0461		1.6237		-0.0462		H		1		UNL1		0.2083
59		H		-2.1093		-3.1204		-0.6743		H		1		UNL1		0.1096
60		H		-2.3162		-2.2420		-2.1943		H		1		UNL1		0.1444
61		H		-0.5253		-0.6179		-1.4495		H		1		UNL1		0.1522
62		H		0.0820		-2.2649		-1.6263		H		1		UNL1		0.1603
@<TRIPOS>BOND
1		41		9		1
2		43		9		1
3		40		7		1
4		9		42		1
5		9		8		1
6		60		33		1
7		62		34		1
8		61		34		1
9		7		8		ar
10		7		4		ar
11		53		22		1
12		33		34		1
13		33		59		1
14		33		21		1
15		8		10		ar
16		34		18		1
17		6		5		3
18		45		14		1
19		21		22		1
20		21		20		1
21		5		4		1
22		22		23		1
23		22		52		1
24		44		13		1
25		54		25		1
26		23		25		1
27		23		24		2
28		14		13		ar
29		14		15		ar
30		25		26		1
31		4		3		ar
32		55		27		1
33		13		12		ar
34		26		27		ar
35		26		32		ar
36		27		28		ar
37		58		32		1
38		32		30		ar
39		15		16		ar
40		28		56		1
41		28		29		ar
42		30		29		ar
43		30		31		1
44		29		57		1
45		10		11		1
46		10		2		ar
47		12		11		1
48		12		35		ar
49		50		20		1
50		16		35		ar
51		16		17		1
52		18		17		1
53		18		47		1
54		18		19		1
55		20		51		1
56		20		19		1
57		17		46		1
58		3		2		ar
59		3		39		1
60		2		1		1
61		19		49		1
62		19		48		1
63		36		1		1
64		1		37		1
65		1		38		1

