@<TRIPOS>MOLECULE
WZY-2015-EJMC-1-4-7j
 62 65 0 0 0
SMALL
MULLIKEN_CHARGES
****
Gaussian 16 #p B3LYP/6-31G* opt
@<TRIPOS>ATOM
1		C		-6.5423		-1.4705		-1.4787		C.3		1		UNL1		-0.5315
2		C		-6.7270		-0.1276		-0.8175		C.ar		1		UNL1		0.1728
3		C		-7.9912		0.3471		-0.4650		C.ar		1		UNL1		-0.2280
4		C		-8.1416		1.6055		0.1365		C.ar		1		UNL1		0.1660
5		C		-9.4484		2.0769		0.4921		C.1		1		UNL1		0.2313
6		N		-10.5084		2.4584		0.7825		N.1		1		UNL1		-0.4781
7		C		-7.0170		2.4070		0.3834		C.ar		1		UNL1		-0.2280
8		C		-5.7379		1.9639		0.0440		C.ar		1		UNL1		0.1726
9		C		-4.5159		2.8141		0.2863		C.3		1		UNL1		-0.5314
10		C		-5.6238		0.6943		-0.5422		C.ar		1		UNL1		0.1981
11		O		-4.3672		0.2755		-0.9679		O.3		1		UNL1		-0.5360
12		C		-3.5643		-0.4507		-0.1328		C.ar		1		UNL1		0.5335
13		C		-3.9333		-0.8126		1.1729		C.ar		1		UNL1		-0.2280
14		C		-2.9803		-1.5506		1.8665		C.ar		1		UNL1		0.0579
15		N		-1.7944		-1.9047		1.3645		N.ar		1		UNL1		-0.4855
16		C		-1.5656		-1.4966		0.0991		C.ar		1		UNL1		0.6745
17		N		-0.3773		-1.8286		-0.4729		N.3		1		UNL1		-0.6512
18		C		0.6352		-2.6863		0.1453		C.3		1		UNL1		0.0660
19		C		1.4852		-1.9238		1.1856		C.3		1		UNL1		-0.2734
20		C		2.4212		-0.9069		0.5156		C.3		1		UNL1		-0.1598
21		N		3.2954		-1.4947		-0.5211		N.3		1		UNL1		-0.4128
22		C		4.4183		-2.2558		0.0283		C.3		1		UNL1		-0.2254
23		C		5.6313		-1.3843		0.4063		C.2		1		UNL1		0.5826
24		O		6.4949		-1.8135		1.1611		O.2		1		UNL1		-0.5104
25		N		5.6358		-0.1694		-0.2183		N.am		1		UNL1		-0.7143
26		C		6.5911		0.8630		-0.1532		C.ar		1		UNL1		0.3582
27		C		7.7666		0.7697		0.6099		C.ar		1		UNL1		-0.1629
28		C		8.6681		1.8333		0.6261		C.ar		1		UNL1		-0.2131
29		C		8.3969		2.9771		-0.1137		C.ar		1		UNL1		0.3796
30		F		9.2760		4.0041		-0.0933		F		1		UNL1		-0.3020
31		C		7.2410		3.0915		-0.8766		C.ar		1		UNL1		-0.2018
32		C		6.3404		2.0300		-0.8923		C.ar		1		UNL1		-0.1941
33		C		2.4998		-2.2049		-1.5317		C.3		1		UNL1		-0.1533
34		C		1.5504		-3.2691		-0.9471		C.3		1		UNL1		-0.3061
35		N		-2.4068		-0.7788		-0.6775		N.ar		1		UNL1		-0.5431
36		H		-5.9950		-2.1641		-0.8290		H		1		UNL1		0.1747
37		H		-5.9642		-1.3772		-2.4042		H		1		UNL1		0.1850
38		H		-7.5091		-1.9226		-1.7162		H		1		UNL1		0.1628
39		H		-8.8691		-0.2603		-0.6619		H		1		UNL1		0.1567
40		H		-7.1458		3.3839		0.8390		H		1		UNL1		0.1569
41		H		-3.9290		2.9301		-0.6310		H		1		UNL1		0.1849
42		H		-3.8543		2.3591		1.0332		H		1		UNL1		0.1745
43		H		-4.7988		3.8069		0.6464		H		1		UNL1		0.1630
44		H		-4.8839		-0.5410		1.6122		H		1		UNL1		0.1554
45		H		-3.1806		-1.8753		2.8867		H		1		UNL1		0.1518
46		H		-0.2840		-1.5499		-1.4390		H		1		UNL1		0.3348
47		H		0.1058		-3.4978		0.6557		H		1		UNL1		0.1619
48		H		0.8221		-1.4221		1.8972		H		1		UNL1		0.1681
49		H		2.0684		-2.6564		1.7591		H		1		UNL1		0.1414
50		H		3.0542		-0.4126		1.2602		H		1		UNL1		0.1562
51		H		1.8213		-0.1228		0.0355		H		1		UNL1		0.1499
52		H		4.1798		-2.8513		0.9208		H		1		UNL1		0.1650
53		H		4.7727		-2.9639		-0.7310		H		1		UNL1		0.1737
54		H		4.8079		-0.0203		-0.7914		H		1		UNL1		0.3496
55		H		7.9584		-0.1298		1.1783		H		1		UNL1		0.1921
56		H		9.5811		1.7789		1.2101		H		1		UNL1		0.1491
57		H		7.0564		3.9973		-1.4446		H		1		UNL1		0.1456
58		H		5.4323		2.1077		-1.4858		H		1		UNL1		0.1309
59		H		3.1818		-2.6610		-2.2575		H		1		UNL1		0.1522
60		H		1.9235		-1.4481		-2.0833		H		1		UNL1		0.1394
61		H		0.9491		-3.7217		-1.7464		H		1		UNL1		0.1466
62		H		2.1434		-4.0770		-0.5013		H		1		UNL1		0.1548
@<TRIPOS>BOND
1		37		1		1
2		59		33		1
3		60		33		1
4		61		34		1
5		38		1		1
6		33		34		1
7		33		21		1
8		58		32		1
9		1		36		1
10		1		2		1
11		57		31		1
12		46		17		1
13		11		10		1
14		11		12		1
15		34		62		1
16		34		18		1
17		32		31		ar
18		32		26		ar
19		31		29		ar
20		2		10		ar
21		2		3		ar
22		54		25		1
23		53		22		1
24		35		12		ar
25		35		16		ar
26		39		3		1
27		41		9		1
28		10		8		ar
29		21		22		1
30		21		20		1
31		17		16		1
32		17		18		1
33		3		4		ar
34		25		26		1
35		25		23		1
36		26		27		ar
37		12		13		ar
38		29		30		1
39		29		28		ar
40		22		23		1
41		22		52		1
42		51		20		1
43		8		9		1
44		8		7		ar
45		16		15		ar
46		4		7		ar
47		4		5		1
48		18		47		1
49		18		19		1
50		9		43		1
51		9		42		1
52		7		40		1
53		23		24		2
54		5		6		3
55		20		19		1
56		20		50		1
57		27		28		ar
58		27		55		1
59		28		56		1
60		13		44		1
61		13		14		ar
62		19		49		1
63		19		48		1
64		15		14		ar
65		14		45		1

