@<TRIPOS>MOLECULE
WZY-2015-EJMC-1-4-7s
 63 66 0 0 0
SMALL
MULLIKEN_CHARGES
****
Gaussian 16 #p B3LYP/6-31G* opt
@<TRIPOS>ATOM
1		C		5.7864		0.2640		-2.3042		C.3		1		UNL1		-0.5310
2		C		6.1386		-0.6917		-1.1918		C.ar		1		UNL1		0.1725
3		C		7.3501		-1.3842		-1.1783		C.ar		1		UNL1		-0.2282
4		C		7.6523		-2.2784		-0.1403		C.ar		1		UNL1		0.1658
5		C		8.9018		-2.9819		-0.1433		C.1		1		UNL1		0.2310
6		N		9.9163		-3.5515		-0.1454		N.1		1		UNL1		-0.4786
7		C		6.7310		-2.4916		0.8959		C.ar		1		UNL1		-0.2282
8		C		5.5100		-1.8160		0.9140		C.ar		1		UNL1		0.1723
9		C		4.4985		-2.0395		2.0102		C.3		1		UNL1		-0.5311
10		C		5.2469		-0.9194		-0.1327		C.ar		1		UNL1		0.2002
11		O		3.9993		-0.3066		-0.1780		O.3		1		UNL1		-0.5385
12		C		3.8108		0.9128		0.4147		C.ar		1		UNL1		0.5272
13		C		4.8201		1.6102		1.0869		C.ar		1		UNL1		-0.2315
14		C		4.4236		2.8362		1.6235		C.ar		1		UNL1		0.0613
15		N		3.1948		3.3336		1.5228		N.ar		1		UNL1		-0.4907
16		C		2.3105		2.5609		0.8439		C.ar		1		UNL1		0.6725
17		N		1.0585		3.0760		0.7336		N.3		1		UNL1		-0.6496
18		C		-0.1221		2.4680		0.1182		C.3		1		UNL1		0.0678
19		C		-0.5853		1.1778		0.8367		C.3		1		UNL1		-0.2669
20		C		-1.5072		0.3443		-0.0763		C.3		1		UNL1		-0.1442
21		N		-2.2243		1.2352		-0.9933		N.3		1		UNL1		-0.3868
22		C		-3.4035		0.6638		-1.5885		C.3		1		UNL1		-0.2192
23		C		-4.5440		0.4453		-0.5786		C.2		1		UNL1		0.6184
24		O		-4.5492		0.9068		0.5484		O.2		1		UNL1		-0.4818
25		N		-5.5713		-0.3187		-1.1080		N.am		1		UNL1		-0.7280
26		C		-6.7980		-0.6777		-0.5276		C.ar		1		UNL1		0.3779
27		C		-7.1769		-0.2975		0.7720		C.ar		1		UNL1		-0.1664
28		C		-8.4113		-0.6955		1.2710		C.ar		1		UNL1		-0.1528
29		C		-9.2898		-1.4737		0.4992		C.ar		1		UNL1		0.1339
30		C		-10.5586		-1.8779		1.0251		C.1		1		UNL1		0.2305
31		N		-11.5906		-2.2076		1.4502		N.1		1		UNL1		-0.4804
32		C		-8.9064		-1.8517		-0.7989		C.ar		1		UNL1		-0.1405
33		C		-7.6765		-1.4569		-1.3022		C.ar		1		UNL1		-0.2032
34		C		-1.3268		1.8080		-2.0045		C.3		1		UNL1		-0.1144
35		C		0.0340		2.2027		-1.3889		C.3		1		UNL1		-0.3119
36		N		2.5720		1.3631		0.2842		N.ar		1		UNL1		-0.5354
37		H		6.5429		0.2374		-3.0932		H		1		UNL1		0.1621
38		H		4.8149		0.0151		-2.7441		H		1		UNL1		0.1826
39		H		5.7158		1.2950		-1.9372		H		1		UNL1		0.1760
40		H		8.0657		-1.2344		-1.9807		H		1		UNL1		0.1561
41		H		6.9704		-3.1935		1.6887		H		1		UNL1		0.1565
42		H		3.5202		-2.3042		1.5952		H		1		UNL1		0.1832
43		H		4.3556		-1.1341		2.6121		H		1		UNL1		0.1762
44		H		4.8214		-2.8421		2.6789		H		1		UNL1		0.1625
45		H		5.8298		1.2355		1.1883		H		1		UNL1		0.1532
46		H		5.1429		3.4485		2.1661		H		1		UNL1		0.1508
47		H		0.9505		3.9622		1.2054		H		1		UNL1		0.3384
48		H		-0.9097		3.2181		0.2385		H		1		UNL1		0.1529
49		H		-1.1157		1.4534		1.7543		H		1		UNL1		0.1479
50		H		0.2874		0.5814		1.1148		H		1		UNL1		0.1619
51		H		-2.2372		-0.1935		0.5318		H		1		UNL1		0.1601
52		H		-0.9235		-0.4136		-0.6344		H		1		UNL1		0.1195
53		H		-3.2073		-0.2918		-2.1241		H		1		UNL1		0.1239
54		H		-3.7793		1.3631		-2.3495		H		1		UNL1		0.1734
55		H		-5.4269		-0.6631		-2.0491		H		1		UNL1		0.3350
56		H		-6.5034		0.2998		1.3693		H		1		UNL1		0.1988
57		H		-8.7018		-0.4006		2.2743		H		1		UNL1		0.1634
58		H		-9.5758		-2.4528		-1.4055		H		1		UNL1		0.1607
59		H		-7.3899		-1.7544		-2.3085		H		1		UNL1		0.1357
60		H		-1.8270		2.6885		-2.4298		H		1		UNL1		0.1410
61		H		-1.1523		1.1031		-2.8417		H		1		UNL1		0.1139
62		H		0.7703		1.4075		-1.5300		H		1		UNL1		0.1800
63		H		0.4243		3.0947		-1.8909		H		1		UNL1		0.1428
@<TRIPOS>BOND
1		37		1		1
2		61		34		1
3		38		1		1
4		60		34		1
5		54		22		1
6		59		33		1
7		1		39		1
8		1		2		1
9		53		22		1
10		55		25		1
11		34		35		1
12		34		21		1
13		40		3		1
14		63		35		1
15		22		21		1
16		22		23		1
17		62		35		1
18		58		32		1
19		35		18		1
20		33		32		ar
21		33		26		ar
22		2		3		ar
23		2		10		ar
24		3		4		ar
25		25		23		1
26		25		26		1
27		21		20		1
28		32		29		ar
29		52		20		1
30		23		24		2
31		26		27		ar
32		11		10		1
33		11		12		1
34		6		5		3
35		5		4		1
36		4		7		ar
37		10		8		ar
38		20		51		1
39		20		19		1
40		18		48		1
41		18		17		1
42		18		19		1
43		36		12		ar
44		36		16		ar
45		12		13		ar
46		29		30		1
47		29		28		ar
48		17		16		1
49		17		47		1
50		27		28		ar
51		27		56		1
52		19		50		1
53		19		49		1
54		16		15		ar
55		7		8		ar
56		7		41		1
57		8		9		1
58		30		31		3
59		13		45		1
60		13		14		ar
61		28		57		1
62		15		14		ar
63		42		9		1
64		14		46		1
65		9		43		1
66		9		44		1

