@<TRIPOS>MOLECULE
WZY-2015-EJMC-1-4-7c
 65 68 0 0 0
SMALL
MULLIKEN_CHARGES
****
Gaussian 16 #p B3LYP/6-31G* opt
@<TRIPOS>ATOM
1		C		11.3920		-1.0599		-1.6943		C.3		1		UNL1		-0.5319
2		C		10.2604		-0.9602		-0.6973		C.ar		1		UNL1		0.1800
3		C		10.4408		-1.3560		0.6355		C.ar		1		UNL1		-0.1764
4		C		9.3948		-1.2408		1.5481		C.ar		1		UNL1		-0.1424
5		C		8.1496		-0.7365		1.1704		C.ar		1		UNL1		-0.1673
6		C		7.9595		-0.3397		-0.1599		C.ar		1		UNL1		0.3658
7		N		6.7387		0.1805		-0.6461		N.am		1		UNL1		-0.7191
8		C		5.5621		0.4265		0.0245		C.2		1		UNL1		0.6081
9		O		5.3756		0.1796		1.2083		O.2		1		UNL1		-0.5007
10		C		4.4807		1.0895		-0.8645		C.3		1		UNL1		-0.2475
11		N		3.1356		1.0628		-0.3560		N.3		1		UNL1		-0.3893
12		C		2.8481		1.9033		0.8076		C.3		1		UNL1		-0.1286
13		C		1.3440		2.2550		0.8238		C.3		1		UNL1		-0.2879
14		C		0.4991		1.1175		0.2097		C.3		1		UNL1		0.0857
15		N		-0.8589		1.1728		0.7373		N.3		1		UNL1		-0.6545
16		C		-1.9609		0.6810		0.1146		C.ar		1		UNL1		0.6771
17		N		-1.8215		0.1906		-1.1364		N.ar		1		UNL1		-0.4874
18		C		-2.9483		-0.2464		-1.7016		C.ar		1		UNL1		0.0579
19		C		-4.1943		-0.2268		-1.0826		C.ar		1		UNL1		-0.2304
20		C		-4.1947		0.2974		0.2197		C.ar		1		UNL1		0.5321
21		O		-5.3217		0.3920		0.9920		O.3		1		UNL1		-0.5370
22		C		-6.5467		-0.0395		0.4976		C.ar		1		UNL1		0.2009
23		C		-6.9442		-1.3586		0.7643		C.ar		1		UNL1		0.1720
24		C		-6.0245		-2.3075		1.4911		C.3		1		UNL1		-0.5309
25		C		-8.2148		-1.7504		0.3405		C.ar		1		UNL1		-0.2284
26		C		-9.0588		-0.8470		-0.3226		C.ar		1		UNL1		0.1653
27		C		-10.3610		-1.2670		-0.7515		C.1		1		UNL1		0.2305
28		N		-11.4168		-1.6084		-1.1015		N.1		1		UNL1		-0.4801
29		C		-8.6340		0.4689		-0.5600		C.ar		1		UNL1		-0.2284
30		C		-7.3699		0.8945		-0.1497		C.ar		1		UNL1		0.1723
31		C		-6.8969		2.3078		-0.3809		C.3		1		UNL1		-0.5312
32		N		-3.1111		0.7469		0.8238		N.ar		1		UNL1		-0.5426
33		C		1.1876		-0.2365		0.4503		C.3		1		UNL1		-0.3058
34		C		2.5491		-0.2815		-0.2706		C.3		1		UNL1		-0.1117
35		C		9.0158		-0.4571		-1.0777		C.ar		1		UNL1		-0.2601
36		H		12.1594		-0.2986		-1.5027		H		1		UNL1		0.1666
37		H		11.0386		-0.9201		-2.7210		H		1		UNL1		0.1526
38		H		11.8875		-2.0360		-1.6391		H		1		UNL1		0.1626
39		H		11.4009		-1.7551		0.9539		H		1		UNL1		0.1205
40		H		9.5433		-1.5519		2.5790		H		1		UNL1		0.1325
41		H		7.3369		-0.6509		1.8773		H		1		UNL1		0.1816
42		H		6.7449		0.4204		-1.6294		H		1		UNL1		0.3304
43		H		4.4919		0.6114		-1.8564		H		1		UNL1		0.1481
44		H		4.7813		2.1360		-1.0210		H		1		UNL1		0.1685
45		H		3.4445		2.8187		0.7264		H		1		UNL1		0.1347
46		H		3.1474		1.4214		1.7496		H		1		UNL1		0.1572
47		H		1.0354		2.4299		1.8644		H		1		UNL1		0.1237
48		H		1.1521		3.1836		0.2752		H		1		UNL1		0.1485
49		H		0.4200		1.2661		-0.8697		H		1		UNL1		0.1763
50		H		-1.0022		1.4447		1.7004		H		1		UNL1		0.3307
51		H		-2.8506		-0.6417		-2.7121		H		1		UNL1		0.1472
52		H		-5.0872		-0.5944		-1.5706		H		1		UNL1		0.1517
53		H		-6.5323		-3.2515		1.7075		H		1		UNL1		0.1610
54		H		-5.1313		-2.5319		0.8958		H		1		UNL1		0.1752
55		H		-5.6773		-1.8736		2.4347		H		1		UNL1		0.1854
56		H		-8.5574		-2.7631		0.5289		H		1		UNL1		0.1553
57		H		-9.2992		1.1631		-1.0641		H		1		UNL1		0.1552
58		H		-6.0520		2.3367		-1.0793		H		1		UNL1		0.1757
59		H		-7.6998		2.9232		-0.7961		H		1		UNL1		0.1609
60		H		-6.5535		2.7654		0.5529		H		1		UNL1		0.1855
61		H		0.5495		-1.0486		0.0889		H		1		UNL1		0.1577
62		H		1.3207		-0.3852		1.5300		H		1		UNL1		0.1383
63		H		2.4135		-0.6481		-1.2983		H		1		UNL1		0.1347
64		H		3.2125		-0.9921		0.2480		H		1		UNL1		0.1424
65		H		8.8609		-0.1486		-2.1111		H		1		UNL1		0.1111
@<TRIPOS>BOND
1		37		1		1
2		51		18		1
3		65		35		1
4		43		10		1
5		18		17		ar
6		18		19		ar
7		1		38		1
8		1		36		1
9		1		2		1
10		42		7		1
11		52		19		1
12		63		34		1
13		17		16		ar
14		28		27		3
15		19		20		ar
16		58		31		1
17		35		2		ar
18		35		6		ar
19		57		29		1
20		44		10		1
21		49		14		1
22		10		11		1
23		10		8		1
24		59		31		1
25		27		26		1
26		2		3		ar
27		7		6		1
28		7		8		1
29		29		26		ar
30		29		30		ar
31		31		30		1
32		31		60		1
33		11		34		1
34		11		12		1
35		26		25		ar
36		34		64		1
37		34		33		1
38		6		5		ar
39		30		22		ar
40		8		9		2
41		61		33		1
42		16		15		1
43		16		32		ar
44		14		33		1
45		14		15		1
46		14		13		1
47		20		32		ar
48		20		21		1
49		48		13		1
50		25		56		1
51		25		23		ar
52		33		62		1
53		22		23		ar
54		22		21		1
55		3		39		1
56		3		4		ar
57		45		12		1
58		15		50		1
59		23		24		1
60		12		13		1
61		12		46		1
62		13		47		1
63		54		24		1
64		5		4		ar
65		5		41		1
66		24		53		1
67		24		55		1
68		4		40		1

