@<TRIPOS>MOLECULE
WZY-2015-EJMC-1-4-7q
 62 65 0 0 0
SMALL
MULLIKEN_CHARGES
****
Gaussian 16 #p B3LYP/6-31G* opt
@<TRIPOS>ATOM
1		C		6.7813		-1.0006		2.6323		C.3		1		UNL1		-0.5336
2		C		7.3141		-0.2470		1.4402		C.ar		1		UNL1		0.1764
3		C		8.0558		0.9254		1.5884		C.ar		1		UNL1		-0.2308
4		C		8.5404		1.6123		0.4653		C.ar		1		UNL1		0.1657
5		C		9.3002		2.8162		0.6354		C.1		1		UNL1		0.2286
6		N		9.9142		3.7949		0.7737		N.1		1		UNL1		-0.4820
7		C		8.2864		1.1203		-0.8236		C.ar		1		UNL1		-0.2307
8		C		7.5481		-0.0493		-1.0069		C.ar		1		UNL1		0.1785
9		C		7.2607		-0.5943		-2.3827		C.3		1		UNL1		-0.5350
10		C		7.0746		-0.7033		0.1377		C.ar		1		UNL1		0.2456
11		O		6.4249		-1.9302		-0.0213		O.3		1		UNL1		-0.5694
12		C		5.0712		-1.9604		-0.1676		C.ar		1		UNL1		0.5682
13		C		4.4752		-3.2213		-0.3220		C.ar		1		UNL1		-0.2198
14		C		3.0954		-3.1995		-0.4566		C.ar		1		UNL1		0.0600
15		N		2.3590		-2.0800		-0.4467		N.ar		1		UNL1		-0.4944
16		C		3.0523		-0.9362		-0.3052		C.ar		1		UNL1		0.6773
17		N		2.3682		0.2399		-0.3239		N.3		1		UNL1		-0.6568
18		C		0.9174		0.3537		-0.3718		C.3		1		UNL1		0.0784
19		C		0.5147		1.7124		-0.9874		C.3		1		UNL1		-0.3014
20		C		-0.8745		2.1651		-0.4726		C.3		1		UNL1		-0.1532
21		N		-1.8016		1.0628		-0.2049		N.3		1		UNL1		-0.4212
22		C		-2.2935		0.3726		-1.3938		C.3		1		UNL1		-0.2342
23		C		-3.7345		-0.1470		-1.2619		C.2		1		UNL1		0.5860
24		O		-4.2114		-0.9314		-2.0604		O.2		1		UNL1		-0.4886
25		N		-4.4095		0.3987		-0.1886		N.am		1		UNL1		-0.7068
26		C		-5.7822		0.2337		0.0517		C.ar		1		UNL1		0.3330
27		C		-6.6552		1.3376		0.0413		C.ar		1		UNL1		-0.0912
28		CL		-6.0099		2.9368		-0.2864		Cl		1		UNL1		0.0054
29		C		-8.0201		1.2185		0.2833		C.ar		1		UNL1		-0.1484
30		C		-8.5398		-0.0492		0.5306		C.ar		1		UNL1		-0.0513
31		CL		-10.2593		-0.2299		0.8185		Cl		1		UNL1		0.0022
32		C		-7.7195		-1.1724		0.5668		C.ar		1		UNL1		-0.1500
33		C		-6.3512		-1.0202		0.3471		C.ar		1		UNL1		-0.0629
34		CL		-5.3404		-2.4328		0.5163		Cl		1		UNL1		0.0275
35		C		-1.2936		0.1623		0.8606		C.3		1		UNL1		-0.1412
36		C		0.2470		0.1719		1.0011		C.3		1		UNL1		-0.2920
37		N		4.3960		-0.8262		-0.1561		N.ar		1		UNL1		-0.5618
38		H		7.1421		-0.5589		3.5653		H		1		UNL1		0.1608
39		H		7.0863		-2.0523		2.6068		H		1		UNL1		0.1766
40		H		5.6850		-0.9827		2.6496		H		1		UNL1		0.1767
41		H		8.2627		1.3107		2.5820		H		1		UNL1		0.1528
42		H		8.6707		1.6558		-1.6862		H		1		UNL1		0.1532
43		H		7.5593		-1.6449		-2.4647		H		1		UNL1		0.1761
44		H		6.1886		-0.5441		-2.6072		H		1		UNL1		0.1794
45		H		7.7942		-0.0228		-3.1472		H		1		UNL1		0.1610
46		H		5.0595		-4.1322		-0.3268		H		1		UNL1		0.1505
47		H		2.5410		-4.1290		-0.5756		H		1		UNL1		0.1519
48		H		2.9216		1.0613		-0.1215		H		1		UNL1		0.3306
49		H		0.5731		-0.4589		-1.0185		H		1		UNL1		0.1744
50		H		0.5282		1.6399		-2.0807		H		1		UNL1		0.1563
51		H		1.2532		2.4812		-0.7188		H		1		UNL1		0.1336
52		H		-0.7549		2.7206		0.4654		H		1		UNL1		0.1503
53		H		-1.3422		2.8556		-1.1822		H		1		UNL1		0.1534
54		H		-2.3060		1.0772		-2.2344		H		1		UNL1		0.1779
55		H		-1.6825		-0.4852		-1.7137		H		1		UNL1		0.1715
56		H		-3.9074		1.1611		0.2617		H		1		UNL1		0.3626
57		H		-8.6601		2.0918		0.2644		H		1		UNL1		0.1827
58		H		-8.1285		-2.1516		0.7829		H		1		UNL1		0.1835
59		H		-1.7483		0.4408		1.8203		H		1		UNL1		0.1459
60		H		-1.6381		-0.8523		0.6357		H		1		UNL1		0.1641
61		H		0.5692		0.9818		1.6696		H		1		UNL1		0.1325
62		H		0.5798		-0.7679		1.4526		H		1		UNL1		0.1656
@<TRIPOS>BOND
1		45		9		1
2		44		9		1
3		43		9		1
4		9		8		1
5		54		22		1
6		50		19		1
7		24		23		2
8		55		22		1
9		42		7		1
10		22		23		1
11		22		21		1
12		23		25		1
13		53		20		1
14		49		18		1
15		8		7		ar
16		8		10		ar
17		19		51		1
18		19		20		1
19		19		18		1
20		7		4		ar
21		47		14		1
22		20		21		1
23		20		52		1
24		14		15		ar
25		14		13		ar
26		15		16		ar
27		18		17		1
28		18		36		1
29		46		13		1
30		17		16		1
31		17		48		1
32		13		12		ar
33		16		37		ar
34		28		27		1
35		21		35		1
36		25		26		1
37		25		56		1
38		12		37		ar
39		12		11		1
40		11		10		1
41		27		26		ar
42		27		29		ar
43		26		33		ar
44		10		2		ar
45		57		29		1
46		29		30		ar
47		33		34		1
48		33		32		ar
49		4		5		1
50		4		3		ar
51		30		32		ar
52		30		31		1
53		32		58		1
54		5		6		3
55		60		35		1
56		35		36		1
57		35		59		1
58		36		62		1
59		36		61		1
60		2		3		ar
61		2		1		1
62		3		41		1
63		39		1		1
64		1		40		1
65		1		38		1

