@<TRIPOS>MOLECULE
WZY-2015-EJMC-1-4-7y
 67 70 0 0 0
SMALL
MULLIKEN_CHARGES
****
Gaussian 16 #p B3LYP/6-31G* opt
@<TRIPOS>ATOM
1		C		7.8662		1.4811		-1.7732		C.3		1		UNL1		-0.5312
2		C		8.3628		0.4109		-0.8336		C.ar		1		UNL1		0.1724
3		C		9.6384		0.4657		-0.2702		C.ar		1		UNL1		-0.2283
4		C		10.0853		-0.5478		0.5907		C.ar		1		UNL1		0.1656
5		C		11.3988		-0.4747		1.1612		C.1		1		UNL1		0.2308
6		N		12.4636		-0.4140		1.6261		N.1		1		UNL1		-0.4792
7		C		9.2523		-1.6367		0.8885		C.ar		1		UNL1		-0.2283
8		C		7.9708		-1.7235		0.3428		C.ar		1		UNL1		0.1723
9		C		7.0628		-2.8914		0.6369		C.3		1		UNL1		-0.5312
10		C		7.5514		-0.6847		-0.5020		C.ar		1		UNL1		0.1997
11		O		6.3132		-0.7999		-1.1238		O.3		1		UNL1		-0.5361
12		C		5.1958		-0.2715		-0.5367		C.ar		1		UNL1		0.5336
13		C		5.2173		0.4031		0.6950		C.ar		1		UNL1		-0.2305
14		C		3.9797		0.8691		1.1242		C.ar		1		UNL1		0.0559
15		N		2.8395		0.7067		0.4487		N.ar		1		UNL1		-0.4828
16		C		2.9532		0.0399		-0.7203		C.ar		1		UNL1		0.6737
17		N		1.8382		-0.1755		-1.4638		N.3		1		UNL1		-0.6475
18		C		0.4710		0.2795		-1.1919		C.3		1		UNL1		0.0655
19		C		0.3304		1.8146		-1.2657		C.3		1		UNL1		-0.2945
20		C		-1.0753		2.2332		-0.8303		C.3		1		UNL1		-0.1196
21		N		-1.2849		1.9226		0.5842		N.3		1		UNL1		-0.3709
22		C		-2.6280		2.0846		1.0482		C.3		1		UNL1		-0.2498
23		C		-3.6832		1.0869		0.5018		C.2		1		UNL1		0.6055
24		O		-3.3934		0.0692		-0.1080		O.2		1		UNL1		-0.4910
25		N		-4.9814		1.4637		0.7970		N.am		1		UNL1		-0.7167
26		C		-6.1891		0.8028		0.5156		C.ar		1		UNL1		0.3656
27		C		-7.3756		1.3956		0.9831		C.ar		1		UNL1		-0.1911
28		C		-8.6082		0.8034		0.7408		C.ar		1		UNL1		-0.1545
29		C		-8.6641		-0.3959		0.0264		C.ar		1		UNL1		-0.1524
30		S		-10.2506		-1.1830		-0.2643		S.O2		1		UNL1		1.1617
31		N		-10.5069		-2.2763		0.9956		N.3		1		UNL1		-0.7850
32		O		-10.1198		-2.0033		-1.4671		O.2		1		UNL1		-0.5257
33		O		-11.2807		-0.1576		-0.1027		O.2		1		UNL1		-0.5283
34		C		-7.4934		-0.9867		-0.4544		C.ar		1		UNL1		-0.1667
35		C		-6.2554		-0.3979		-0.2131		C.ar		1		UNL1		-0.1536
36		C		-0.4772		0.8224		1.1384		C.3		1		UNL1		-0.1403
37		C		-0.1445		-0.2833		0.1256		C.3		1		UNL1		-0.2815
38		N		4.0980		-0.4586		-1.2436		N.ar		1		UNL1		-0.5455
39		H		8.6617		2.1949		-2.0041		H		1		UNL1		0.1618
40		H		7.0279		2.0377		-1.3373		H		1		UNL1		0.1748
41		H		7.5056		1.0451		-2.7108		H		1		UNL1		0.1856
42		H		10.2952		1.2982		-0.5030		H		1		UNL1		0.1559
43		H		9.6121		-2.4213		1.5468		H		1		UNL1		0.1559
44		H		6.6987		-3.3496		-0.2887		H		1		UNL1		0.1858
45		H		7.5868		-3.6535		1.2202		H		1		UNL1		0.1618
46		H		6.1796		-2.5772		1.2059		H		1		UNL1		0.1748
47		H		6.1216		0.5533		1.2694		H		1		UNL1		0.1534
48		H		3.8991		1.4061		2.0684		H		1		UNL1		0.1485
49		H		2.0175		-0.6621		-2.3303		H		1		UNL1		0.3376
50		H		-0.1084		-0.1343		-2.0244		H		1		UNL1		0.1386
51		H		0.5186		2.1543		-2.2906		H		1		UNL1		0.1354
52		H		1.0753		2.2853		-0.6173		H		1		UNL1		0.1756
53		H		-1.2092		3.3150		-0.9809		H		1		UNL1		0.1302
54		H		-1.8139		1.7271		-1.4782		H		1		UNL1		0.1304
55		H		-2.6481		2.0087		2.1452		H		1		UNL1		0.1708
56		H		-2.9715		3.1047		0.8090		H		1		UNL1		0.1511
57		H		-5.0817		2.3366		1.3002		H		1		UNL1		0.3356
58		H		-7.3303		2.3335		1.5328		H		1		UNL1		0.1357
59		H		-9.5244		1.2745		1.0810		H		1		UNL1		0.1801
60		H		-10.5827		-1.8162		1.8994		H		1		UNL1		0.3464
61		H		-9.8239		-3.0299		1.0001		H		1		UNL1		0.3478
62		H		-7.5526		-1.8983		-1.0404		H		1		UNL1		0.1794
63		H		-5.3451		-0.8449		-0.5859		H		1		UNL1		0.1959
64		H		0.4633		1.2273		1.5304		H		1		UNL1		0.1663
65		H		-1.0209		0.3866		1.9836		H		1		UNL1		0.1278
66		H		0.5522		-0.9908		0.5858		H		1		UNL1		0.1448
67		H		-1.0630		-0.8234		-0.1169		H		1		UNL1		0.1718
@<TRIPOS>BOND
1		41		1		1
2		49		17		1
3		51		19		1
4		50		18		1
5		39		1		1
6		1		40		1
7		1		2		1
8		54		20		1
9		32		30		2
10		17		18		1
11		17		16		1
12		19		18		1
13		19		20		1
14		19		52		1
15		38		16		ar
16		38		12		ar
17		18		37		1
18		11		12		1
19		11		10		1
20		62		34		1
21		53		20		1
22		2		10		ar
23		2		3		ar
24		20		21		1
25		16		15		ar
26		63		35		1
27		12		13		ar
28		42		3		1
29		10		8		ar
30		34		35		ar
31		34		29		ar
32		44		9		1
33		3		4		ar
34		30		33		2
35		30		29		1
36		30		31		1
37		35		26		ar
38		67		37		1
39		24		23		2
40		29		28		ar
41		37		66		1
42		37		36		1
43		8		9		1
44		8		7		ar
45		15		14		ar
46		23		25		1
47		23		22		1
48		26		25		1
49		26		27		ar
50		21		22		1
51		21		36		1
52		4		7		ar
53		4		5		1
54		9		46		1
55		9		45		1
56		13		14		ar
57		13		47		1
58		28		27		ar
59		28		59		1
60		25		57		1
61		56		22		1
62		7		43		1
63		27		58		1
64		31		61		1
65		31		60		1
66		22		55		1
67		14		48		1
68		36		64		1
69		36		65		1
70		5		6		3

