@<TRIPOS>MOLECULE
WZY-2015-EJMC-1-4-7g
 66 69 0 0 0
SMALL
MULLIKEN_CHARGES
****
Gaussian 16 #p B3LYP/6-31G* opt
@<TRIPOS>ATOM
1		C		-11.1177		3.3821		-0.5640		C.3		1		UNL1		-0.2145
2		O		-11.0091		2.2493		0.2816		O.3		1		UNL1		-0.5112
3		C		-9.8439		1.5343		0.2511		C.ar		1		UNL1		0.3809
4		C		-9.7865		0.4237		1.1048		C.ar		1		UNL1		-0.1766
5		C		-8.6474		-0.3657		1.1467		C.ar		1		UNL1		-0.2005
6		C		-7.5342		-0.0718		0.3409		C.ar		1		UNL1		0.3552
7		N		-6.4100		-0.9253		0.4425		N.am		1		UNL1		-0.7235
8		C		-5.2206		-0.8771		-0.2453		C.2		1		UNL1		0.6118
9		O		-4.9252		-0.0116		-1.0549		O.2		1		UNL1		-0.4972
10		C		-4.3004		-2.0677		0.0904		C.3		1		UNL1		-0.2137
11		N		-2.9258		-1.8467		-0.2971		N.3		1		UNL1		-0.3728
12		C		-2.2715		-0.8018		0.4954		C.3		1		UNL1		-0.1414
13		C		-0.8792		-0.4904		-0.0598		C.3		1		UNL1		-0.2648
14		C		-0.0112		-1.7590		-0.1182		C.3		1		UNL1		0.0551
15		N		1.2944		-1.5250		-0.7231		N.3		1		UNL1		-0.6475
16		C		2.3794		-1.0313		-0.0695		C.ar		1		UNL1		0.6762
17		N		2.3058		-0.8884		1.2714		N.ar		1		UNL1		-0.4875
18		C		3.4163		-0.4332		1.8540		C.ar		1		UNL1		0.0586
19		C		4.5839		-0.1101		1.1696		C.ar		1		UNL1		-0.2301
20		C		4.5201		-0.2956		-0.2204		C.ar		1		UNL1		0.5325
21		O		5.5640		-0.0253		-1.0640		O.3		1		UNL1		-0.5365
22		C		6.7655		0.4570		-0.5582		C.ar		1		UNL1		0.2004
23		C		7.7679		-0.4680		-0.2290		C.ar		1		UNL1		0.1723
24		C		7.5135		-1.9506		-0.3380		C.3		1		UNL1		-0.5312
25		C		8.9999		0.0346		0.1918		C.ar		1		UNL1		-0.2283
26		C		9.2190		1.4180		0.2729		C.ar		1		UNL1		0.1654
27		C		10.4912		1.9166		0.7077		C.1		1		UNL1		0.2306
28		N		11.5228		2.3211		1.0627		N.1		1		UNL1		-0.4800
29		C		8.1984		2.3143		-0.0782		C.ar		1		UNL1		-0.2283
30		C		6.9542		1.8463		-0.5030		C.ar		1		UNL1		0.1722
31		C		5.8467		2.7904		-0.8991		C.3		1		UNL1		-0.5311
32		N		3.4487		-0.7455		-0.8462		N.ar		1		UNL1		-0.5419
33		C		-0.7536		-2.8617		-0.8826		C.3		1		UNL1		-0.2797
34		C		-2.1510		-3.0863		-0.2965		C.3		1		UNL1		-0.1236
35		C		-7.5906		1.0369		-0.5104		C.ar		1		UNL1		-0.1727
36		C		-8.7397		1.8319		-0.5528		C.ar		1		UNL1		-0.2108
37		H		-10.3600		4.1403		-0.3244		H		1		UNL1		0.1520
38		H		-12.1113		3.7970		-0.3837		H		1		UNL1		0.1689
39		H		-11.0271		3.1068		-1.6234		H		1		UNL1		0.1520
40		H		-10.6467		0.1972		1.7267		H		1		UNL1		0.1397
41		H		-8.6202		-1.2249		1.8147		H		1		UNL1		0.1216
42		H		-6.5116		-1.6831		1.1051		H		1		UNL1		0.3280
43		H		-4.4093		-2.3219		1.1677		H		1		UNL1		0.1164
44		H		-4.6814		-2.9336		-0.4686		H		1		UNL1		0.1700
45		H		-2.1883		-1.1057		1.5607		H		1		UNL1		0.1065
46		H		-2.8899		0.0978		0.4544		H		1		UNL1		0.1699
47		H		-0.3881		0.2623		0.5668		H		1		UNL1		0.1512
48		H		-0.9847		-0.0739		-1.0695		H		1		UNL1		0.1458
49		H		0.1787		-2.0966		0.9060		H		1		UNL1		0.1645
50		H		1.3649		-1.5045		-1.7320		H		1		UNL1		0.3317
51		H		3.3711		-0.3152		2.9361		H		1		UNL1		0.1480
52		H		5.4654		0.2612		1.6750		H		1		UNL1		0.1523
53		H		7.1409		-2.2137		-1.3336		H		1		UNL1		0.1856
54		H		6.7556		-2.2796		0.3830		H		1		UNL1		0.1754
55		H		8.4293		-2.5170		-0.1477		H		1		UNL1		0.1611
56		H		9.8000		-0.6502		0.4551		H		1		UNL1		0.1553
57		H		8.3821		3.3828		-0.0224		H		1		UNL1		0.1555
58		H		6.2002		3.8251		-0.9008		H		1		UNL1		0.1613
59		H		5.4635		2.5509		-1.8967		H		1		UNL1		0.1857
60		H		4.9985		2.7234		-0.2074		H		1		UNL1		0.1754
61		H		-0.8592		-2.5705		-1.9370		H		1		UNL1		0.1416
62		H		-0.1810		-3.7961		-0.8500		H		1		UNL1		0.1455
63		H		-2.0541		-3.5086		0.7263		H		1		UNL1		0.1103
64		H		-2.6858		-3.8307		-0.8983		H		1		UNL1		0.1411
65		H		-6.7392		1.2730		-1.1330		H		1		UNL1		0.1864
66		H		-8.7527		2.6840		-1.2228		H		1		UNL1		0.1358
@<TRIPOS>BOND
1		61		33		1
2		59		31		1
3		50		15		1
4		39		1		1
5		53		24		1
6		66		36		1
7		65		35		1
8		48		13		1
9		21		22		1
10		21		20		1
11		9		8		2
12		58		31		1
13		31		30		1
14		31		60		1
15		64		34		1
16		33		62		1
17		33		34		1
18		33		14		1
19		32		20		ar
20		32		16		ar
21		15		14		1
22		15		16		1
23		1		38		1
24		1		37		1
25		1		2		1
26		22		30		ar
27		22		23		ar
28		36		35		ar
29		36		3		ar
30		35		6		ar
31		30		29		ar
32		44		10		1
33		24		23		1
34		24		55		1
35		24		54		1
36		11		34		1
37		11		10		1
38		11		12		1
39		34		63		1
40		8		10		1
41		8		7		1
42		23		25		ar
43		20		19		ar
44		14		13		1
45		14		49		1
46		29		57		1
47		29		26		ar
48		16		17		ar
49		13		12		1
50		13		47		1
51		10		43		1
52		25		26		ar
53		25		56		1
54		3		2		1
55		3		4		ar
56		26		27		1
57		6		7		1
58		6		5		ar
59		7		42		1
60		46		12		1
61		12		45		1
62		27		28		3
63		4		5		ar
64		4		40		1
65		5		41		1
66		19		52		1
67		19		18		ar
68		17		18		ar
69		18		51		1

