@<TRIPOS>MOLECULE
WZY-2015-BMC-4248-3-3u
 47 49 0 0 0
SMALL
MULLIKEN_CHARGES
****
Gaussian 16 #p B3LYP/6-31G* opt
@<TRIPOS>ATOM
1		C		4.6577		0.7365		-2.2012		C.3		1		UNL1		-0.5370
2		C		4.7005		0.0641		-0.8524		C.ar		1		UNL1		0.1828
3		C		5.6824		0.3763		0.0885		C.ar		1		UNL1		-0.2277
4		C		5.7027		-0.2581		1.3391		C.ar		1		UNL1		0.1699
5		C		6.7240		0.0701		2.2908		C.1		1		UNL1		0.2313
6		N		7.5541		0.3351		3.0616		N.1		1		UNL1		-0.4778
7		C		4.7326		-1.2196		1.6571		C.ar		1		UNL1		-0.2275
8		C		3.7360		-1.5566		0.7403		C.ar		1		UNL1		0.1836
9		C		2.6820		-2.5850		1.0636		C.3		1		UNL1		-0.5378
10		C		3.7488		-0.8975		-0.4943		C.ar		1		UNL1		0.2335
11		O		2.8224		-1.3023		-1.4696		O.3		1		UNL1		-0.5568
12		C		1.6212		-0.6896		-1.5534		C.ar		1		UNL1		0.5541
13		C		0.7361		-1.1440		-2.5478		C.ar		1		UNL1		-0.1965
14		C		-0.4886		-0.5071		-2.5826		C.ar		1		UNL1		0.0604
15		N		-0.8307		0.4873		-1.7382		N.ar		1		UNL1		-0.4694
16		C		0.1082		0.8490		-0.8582		C.ar		1		UNL1		0.2673
17		S		-0.1752		2.1725		0.2845		S.3		1		UNL1		0.2144
18		C		-1.7747		2.8834		-0.2846		C.3		1		UNL1		-0.5446
19		C		-3.0220		2.2562		0.3508		C.2		1		UNL1		0.6003
20		O		-3.6215		2.8305		1.2512		O.2		1		UNL1		-0.4945
21		N		-3.3679		1.0540		-0.1991		N.am		1		UNL1		-0.7297
22		C		-4.4318		0.1975		0.1602		C.ar		1		UNL1		0.3524
23		C		-4.5450		-1.0205		-0.5298		C.ar		1		UNL1		-0.2028
24		C		-5.5652		-1.9183		-0.2410		C.ar		1		UNL1		-0.1636
25		C		-6.5002		-1.6118		0.7525		C.ar		1		UNL1		0.3556
26		O		-7.4871		-2.5300		0.9997		O.3		1		UNL1		-0.6483
27		C		-6.3941		-0.4022		1.4428		C.ar		1		UNL1		-0.2100
28		C		-5.3715		0.5015		1.1552		C.ar		1		UNL1		-0.1675
29		N		1.3257		0.2967		-0.7225		N.ar		1		UNL1		-0.4843
30		H		5.5376		1.3687		-2.3476		H		1		UNL1		0.1662
31		H		3.7682		1.3710		-2.2957		H		1		UNL1		0.1796
32		H		4.6222		0.0018		-3.0129		H		1		UNL1		0.1741
33		H		6.4399		1.1165		-0.1490		H		1		UNL1		0.1570
34		H		4.7593		-1.7071		2.6265		H		1		UNL1		0.1578
35		H		1.6924		-2.1202		1.1495		H		1		UNL1		0.1816
36		H		2.9021		-3.0808		2.0128		H		1		UNL1		0.1670
37		H		2.6169		-3.3497		0.2821		H		1		UNL1		0.1740
38		H		1.0058		-1.9449		-3.2246		H		1		UNL1		0.1681
39		H		-1.2457		-0.7959		-3.3082		H		1		UNL1		0.1668
40		H		-1.7428		3.9264		0.0347		H		1		UNL1		0.2162
41		H		-1.7965		2.8358		-1.3765		H		1		UNL1		0.2083
42		H		-2.7314		0.7110		-0.9176		H		1		UNL1		0.3772
43		H		-3.8213		-1.2680		-1.3034		H		1		UNL1		0.1208
44		H		-5.6502		-2.8591		-0.7755		H		1		UNL1		0.1382
45		H		-8.0587		-2.1907		1.7057		H		1		UNL1		0.4073
46		H		-7.1176		-0.1550		2.2181		H		1		UNL1		0.1224
47		H		-5.2932		1.4358		1.6932		H		1		UNL1		0.1875
@<TRIPOS>BOND
1		39		14		1
2		38		13		1
3		32		1		1
4		14		13		ar
5		14		15		ar
6		13		12		ar
7		30		1		1
8		31		1		1
9		1		2		1
10		15		16		ar
11		12		11		1
12		12		29		ar
13		11		10		1
14		41		18		1
15		43		23		1
16		42		21		1
17		16		29		ar
18		16		17		1
19		2		10		ar
20		2		3		ar
21		44		24		1
22		23		24		ar
23		23		22		ar
24		10		8		ar
25		18		40		1
26		18		17		1
27		18		19		1
28		24		25		ar
29		21		22		1
30		21		19		1
31		33		3		1
32		3		4		ar
33		22		28		ar
34		37		9		1
35		19		20		2
36		8		9		1
37		8		7		ar
38		25		26		1
39		25		27		ar
40		26		45		1
41		9		35		1
42		9		36		1
43		28		27		ar
44		28		47		1
45		4		7		ar
46		4		5		1
47		27		46		1
48		7		34		1
49		5		6		3

