@<TRIPOS>MOLECULE
WZY-2015-BMC-4248-3-3f
 46 48 0 0 0
SMALL
MULLIKEN_CHARGES
****
Gaussian 16 #p B3LYP/6-31G* opt
@<TRIPOS>ATOM
1		C		5.2200		0.6354		-2.5272		C.3		1		UNL1		-0.5322
2		C		5.9439		0.3556		-1.2338		C.ar		1		UNL1		0.1726
3		C		7.2636		-0.0987		-1.2165		C.ar		1		UNL1		-0.2276
4		C		7.9236		-0.3357		-0.0015		C.ar		1		UNL1		0.1670
5		C		9.2789		-0.8048		-0.0034		C.1		1		UNL1		0.2323
6		N		10.3769		-1.1889		-0.0049		N.1		1		UNL1		-0.4760
7		C		7.2640		-0.1075		1.2154		C.ar		1		UNL1		-0.2276
8		C		5.9443		0.3467		1.2365		C.ar		1		UNL1		0.1726
9		C		5.2208		0.6172		2.5321		C.3		1		UNL1		-0.5323
10		C		5.3115		0.5548		0.0022		C.ar		1		UNL1		0.1928
11		O		4.0237		1.0882		0.0043		O.3		1		UNL1		-0.5229
12		C		2.9402		0.2644		0.0013		C.ar		1		UNL1		0.5158
13		C		3.0262		-1.1381		-0.0036		C.ar		1		UNL1		-0.2059
14		C		1.8095		-1.8053		-0.0061		C.ar		1		UNL1		0.0542
15		N		0.6204		-1.1852		-0.0040		N.ar		1		UNL1		-0.4424
16		C		0.6780		0.1531		0.0007		C.ar		1		UNL1		0.2429
17		S		-0.8140		1.1102		0.0040		S.3		1		UNL1		0.2438
18		C		-2.0442		-0.2438		-0.0012		C.3		1		UNL1		-0.5356
19		C		-3.4447		0.3699		0.0008		C.2		1		UNL1		0.6242
20		O		-3.6386		1.5756		0.0042		O.2		1		UNL1		-0.4766
21		N		-4.4402		-0.5809		-0.0019		N.am		1		UNL1		-0.7177
22		C		-5.8403		-0.3986		-0.0013		C.ar		1		UNL1		0.3571
23		C		-6.6400		-1.5516		-0.0040		C.ar		1		UNL1		-0.1922
24		C		-8.0280		-1.4579		-0.0037		C.ar		1		UNL1		-0.1343
25		C		-8.6255		-0.1987		-0.0006		C.ar		1		UNL1		-0.0633
26		CL		-10.3796		-0.0693		-0.0002		Cl		1		UNL1		-0.0248
27		C		-7.8450		0.9552		0.0021		C.ar		1		UNL1		-0.1458
28		C		-6.4539		0.8632		0.0017		C.ar		1		UNL1		-0.1553
29		N		1.7845		0.9096		0.0035		N.ar		1		UNL1		-0.4649
30		H		4.7984		1.6461		-2.5318		H		1		UNL1		0.1906
31		H		5.8974		0.5372		-3.3796		H		1		UNL1		0.1654
32		H		4.3849		-0.0592		-2.6790		H		1		UNL1		0.1723
33		H		7.7882		-0.2656		-2.1520		H		1		UNL1		0.1588
34		H		7.7890		-0.2810		2.1496		H		1		UNL1		0.1588
35		H		4.7981		1.6273		2.5436		H		1		UNL1		0.1906
36		H		4.3866		-0.0794		2.6797		H		1		UNL1		0.1723
37		H		5.8988		0.5141		3.3835		H		1		UNL1		0.1654
38		H		3.9711		-1.6663		-0.0054		H		1		UNL1		0.1653
39		H		1.7807		-2.8936		-0.0100		H		1		UNL1		0.1591
40		H		-1.8970		-0.8750		-0.8835		H		1		UNL1		0.2099
41		H		-1.8972		-0.8815		0.8763		H		1		UNL1		0.2098
42		H		-4.1367		-1.5462		-0.0045		H		1		UNL1		0.3357
43		H		-6.1746		-2.5352		-0.0063		H		1		UNL1		0.1314
44		H		-8.6386		-2.3543		-0.0057		H		1		UNL1		0.1574
45		H		-8.3197		1.9307		0.0044		H		1		UNL1		0.1616
46		H		-5.8442		1.7555		0.0038		H		1		UNL1		0.1978
@<TRIPOS>BOND
1		31		1		1
2		32		1		1
3		30		1		1
4		1		2		1
5		33		3		1
6		2		3		ar
7		2		10		ar
8		3		4		ar
9		40		18		1
10		39		14		1
11		43		23		1
12		14		15		ar
13		14		13		ar
14		44		24		1
15		38		13		1
16		6		5		3
17		42		21		1
18		15		16		ar
19		23		24		ar
20		23		22		ar
21		24		25		ar
22		13		12		ar
23		5		4		1
24		21		22		1
25		21		19		1
26		4		7		ar
27		22		28		ar
28		18		19		1
29		18		17		1
30		18		41		1
31		25		26		1
32		25		27		ar
33		16		29		ar
34		16		17		1
35		19		20		2
36		12		29		ar
37		12		11		1
38		28		27		ar
39		28		46		1
40		27		45		1
41		10		11		1
42		10		8		ar
43		7		8		ar
44		7		34		1
45		8		9		1
46		9		35		1
47		9		36		1
48		9		37		1

