@<TRIPOS>MOLECULE
WZY-2015-BMC-4248-3-3a
 46 48 0 0 0
SMALL
MULLIKEN_CHARGES
****
Gaussian 16 #p B3LYP/6-31G* opt
@<TRIPOS>ATOM
1		C		-3.2140		-2.1657		1.4083		C.3		1		UNL1		-0.5321
2		C		-4.1890		-1.2022		0.7789		C.ar		1		UNL1		0.1725
3		C		-5.4728		-1.6003		0.4030		C.ar		1		UNL1		-0.2276
4		C		-6.3695		-0.6830		-0.1649		C.ar		1		UNL1		0.1670
5		C		-7.6839		-1.1109		-0.5469		C.1		1		UNL1		0.2323
6		N		-8.7489		-1.4592		-0.8596		N.1		1		UNL1		-0.4760
7		C		-5.9864		0.6535		-0.3526		C.ar		1		UNL1		-0.2275
8		C		-4.7106		1.0872		0.0116		C.ar		1		UNL1		0.1731
9		C		-4.2829		2.5231		-0.1631		C.3		1		UNL1		-0.5326
10		C		-3.8360		0.1374		0.5596		C.ar		1		UNL1		0.1928
11		O		-2.5891		0.5708		1.0072		O.3		1		UNL1		-0.5236
12		C		-1.5144		0.5464		0.1721		C.ar		1		UNL1		0.5156
13		C		-1.5663		0.0869		-1.1544		C.ar		1		UNL1		-0.2057
14		C		-0.3641		0.1379		-1.8468		C.ar		1		UNL1		0.0543
15		N		0.7803		0.5909		-1.3153		N.ar		1		UNL1		-0.4282
16		C		0.6919		0.9996		-0.0454		C.ar		1		UNL1		0.2447
17		S		2.1288		1.6363		0.7765		S.3		1		UNL1		0.2097
18		C		3.3920		1.4657		-0.5520		C.3		1		UNL1		-0.5031
19		C		4.7495		1.8575		0.0217		C.2		1		UNL1		0.5622
20		O		5.0202		3.0239		0.2663		O.2		1		UNL1		-0.4825
21		N		5.6927		0.8688		0.2137		N.am		1		UNL1		-0.6879
22		C		5.6315		-0.5407		0.0670		C.ar		1		UNL1		0.3106
23		C		6.7116		-1.1973		-0.5402		C.ar		1		UNL1		-0.1644
24		C		6.7096		-2.5850		-0.6638		C.ar		1		UNL1		-0.1362
25		C		5.6249		-3.3323		-0.1996		C.ar		1		UNL1		-0.1247
26		C		4.5518		-2.6794		0.4082		C.ar		1		UNL1		-0.1437
27		C		4.5566		-1.2924		0.5602		C.ar		1		UNL1		-0.1621
28		N		-0.4012		0.9985		0.7292		N.ar		1		UNL1		-0.4629
29		H		-3.6933		-3.1282		1.6062		H		1		UNL1		0.1651
30		H		-2.8233		-1.7706		2.3519		H		1		UNL1		0.1895
31		H		-2.3508		-2.3471		0.7563		H		1		UNL1		0.1717
32		H		-5.7845		-2.6288		0.5559		H		1		UNL1		0.1585
33		H		-6.6930		1.3577		-0.7803		H		1		UNL1		0.1591
34		H		-3.8896		2.9336		0.7727		H		1		UNL1		0.1905
35		H		-3.4874		2.6175		-0.9122		H		1		UNL1		0.1737
36		H		-5.1242		3.1412		-0.4878		H		1		UNL1		0.1656
37		H		-2.4761		-0.2821		-1.6101		H		1		UNL1		0.1655
38		H		-0.3102		-0.1991		-2.8804		H		1		UNL1		0.1623
39		H		3.1595		2.1766		-1.3473		H		1		UNL1		0.2197
40		H		3.3576		0.4542		-0.9541		H		1		UNL1		0.2091
41		H		6.5938		1.2618		0.4644		H		1		UNL1		0.3401
42		H		7.5449		-0.6127		-0.9218		H		1		UNL1		0.1359
43		H		7.5538		-3.0813		-1.1345		H		1		UNL1		0.1380
44		H		5.6207		-4.4134		-0.3036		H		1		UNL1		0.1345
45		H		3.7109		-3.2519		0.7900		H		1		UNL1		0.1381
46		H		3.7433		-0.7963		1.0807		H		1		UNL1		0.1692
@<TRIPOS>BOND
1		38		14		1
2		14		15		ar
3		14		13		ar
4		37		13		1
5		39		18		1
6		15		16		ar
7		13		12		ar
8		43		24		1
9		40		18		1
10		42		23		1
11		35		9		1
12		6		5		3
13		33		7		1
14		24		23		ar
15		24		25		ar
16		18		19		1
17		18		17		1
18		5		4		1
19		23		22		ar
20		36		9		1
21		7		4		ar
22		7		8		ar
23		44		25		1
24		25		26		ar
25		4		3		ar
26		9		8		1
27		9		34		1
28		16		28		ar
29		16		17		1
30		8		10		ar
31		19		21		1
32		19		20		2
33		22		21		1
34		22		27		ar
35		12		28		ar
36		12		11		1
37		21		41		1
38		3		32		1
39		3		2		ar
40		26		27		ar
41		26		45		1
42		10		2		ar
43		10		11		1
44		27		46		1
45		31		1		1
46		2		1		1
47		1		29		1
48		1		30		1

