@<TRIPOS>MOLECULE
WZY-2015-EJMC-1-4-7d
 65 68 0 0 0
SMALL
MULLIKEN_CHARGES
****
Gaussian 16 #p B3LYP/6-31G* opt
@<TRIPOS>ATOM
1		C		-11.3841		2.2183		-0.5871		C.3		1		UNL1		-0.5305
2		C		-10.1457		1.3653		-0.4399		C.ar		1		UNL1		0.1844
3		C		-10.2129		-0.0316		-0.5127		C.ar		1		UNL1		-0.1857
4		C		-9.0772		-0.8183		-0.3477		C.ar		1		UNL1		-0.1944
5		C		-7.8289		-0.2270		-0.1055		C.ar		1		UNL1		0.3522
6		N		-6.7172		-1.0871		0.0487		N.am		1		UNL1		-0.7151
7		C		-5.4045		-0.7816		0.3181		C.2		1		UNL1		0.6050
8		O		-4.9716		0.3579		0.4353		O.2		1		UNL1		-0.5024
9		C		-4.5107		-2.0364		0.4987		C.3		1		UNL1		-0.2516
10		N		-3.0919		-1.8207		0.4514		N.3		1		UNL1		-0.3714
11		C		-2.4761		-1.1432		1.6070		C.3		1		UNL1		-0.1277
12		C		-1.7917		0.1764		1.2268		C.3		1		UNL1		-0.3193
13		C		-0.7136		-0.0107		0.1340		C.3		1		UNL1		0.0734
14		N		0.6109		-0.1446		0.7375		N.3		1		UNL1		-0.6498
15		C		1.7838		0.1077		0.1025		C.ar		1		UNL1		0.6758
16		N		1.7339		0.6437		-1.1369		N.ar		1		UNL1		-0.4867
17		C		2.9197		0.9046		-1.6889		C.ar		1		UNL1		0.0582
18		C		4.1427		0.6504		-1.0754		C.ar		1		UNL1		-0.2309
19		C		4.0501		0.0800		0.2039		C.ar		1		UNL1		0.5319
20		O		5.1431		-0.2509		0.9605		O.3		1		UNL1		-0.5375
21		C		6.4249		-0.0197		0.4761		C.ar		1		UNL1		0.2013
22		C		7.0470		1.1974		0.7935		C.ar		1		UNL1		0.1722
23		C		6.3071		2.2620		1.5641		C.3		1		UNL1		-0.5311
24		C		8.3667		1.3780		0.3775		C.ar		1		UNL1		-0.2284
25		C		9.0401		0.3689		-0.3272		C.ar		1		UNL1		0.1652
26		C		10.3962		0.5717		-0.7468		C.1		1		UNL1		0.2304
27		N		11.4959		0.7368		-1.0891		N.1		1		UNL1		-0.4804
28		C		8.3917		-0.8415		-0.6151		C.ar		1		UNL1		-0.2284
29		C		7.0724		-1.0557		-0.2142		C.ar		1		UNL1		0.1720
30		C		6.3590		-2.3534		-0.5001		C.3		1		UNL1		-0.5309
31		N		2.9044		-0.1936		0.7983		N.ar		1		UNL1		-0.5424
32		C		-1.0608		-1.2202		-0.7733		C.3		1		UNL1		-0.2906
33		C		-2.5719		-1.4337		-0.8624		C.3		1		UNL1		-0.1284
34		C		-7.7396		1.1706		-0.0346		C.ar		1		UNL1		-0.1588
35		C		-8.8908		1.9389		-0.2022		C.ar		1		UNL1		-0.1976
36		H		-12.1298		1.7363		-1.2287		H		1		UNL1		0.1552
37		H		-11.1478		3.1957		-1.0215		H		1		UNL1		0.1581
38		H		-11.8627		2.4029		0.3843		H		1		UNL1		0.1649
39		H		-11.1683		-0.5154		-0.7029		H		1		UNL1		0.1236
40		H		-9.1593		-1.9022		-0.4117		H		1		UNL1		0.1189
41		H		-6.9325		-2.0726		-0.0357		H		1		UNL1		0.3301
42		H		-4.7761		-2.4896		1.4648		H		1		UNL1		0.1704
43		H		-4.7828		-2.7769		-0.2697		H		1		UNL1		0.1474
44		H		-3.2457		-0.9401		2.3583		H		1		UNL1		0.1442
45		H		-1.7464		-1.8213		2.0814		H		1		UNL1		0.1239
46		H		-2.5650		0.8553		0.8592		H		1		UNL1		0.1916
47		H		-1.3455		0.6419		2.1143		H		1		UNL1		0.1387
48		H		-0.6727		0.8895		-0.4841		H		1		UNL1		0.1695
49		H		0.7024		-0.6361		1.6166		H		1		UNL1		0.3308
50		H		2.8935		1.3409		-2.6869		H		1		UNL1		0.1474
51		H		5.0865		0.8707		-1.5561		H		1		UNL1		0.1512
52		H		5.8873		1.8566		2.4908		H		1		UNL1		0.1854
53		H		6.9725		3.0922		1.8165		H		1		UNL1		0.1608
54		H		5.4682		2.6642		0.9837		H		1		UNL1		0.1763
55		H		8.8812		2.3066		0.6046		H		1		UNL1		0.1552
56		H		8.9254		-1.6199		-1.1515		H		1		UNL1		0.1549
57		H		5.9416		-2.7831		0.4166		H		1		UNL1		0.1849
58		H		5.5214		-2.2040		-1.1920		H		1		UNL1		0.1754
59		H		7.0412		-3.0816		-0.9473		H		1		UNL1		0.1606
60		H		-0.6069		-2.1269		-0.3535		H		1		UNL1		0.1428
61		H		-0.6285		-1.0717		-1.7677		H		1		UNL1		0.1584
62		H		-3.0554		-0.5229		-1.2581		H		1		UNL1		0.1384
63		H		-2.7937		-2.2449		-1.5700		H		1		UNL1		0.1306
64		H		-6.7803		1.6353		0.1441		H		1		UNL1		0.1821
65		H		-8.8033		3.0219		-0.1475		H		1		UNL1		0.1266
@<TRIPOS>BOND
1		50		17		1
2		61		32		1
3		17		16		ar
4		17		18		ar
5		63		33		1
6		51		18		1
7		62		33		1
8		36		1		1
9		58		30		1
10		56		28		1
11		16		15		ar
12		27		26		3
13		18		19		ar
14		37		1		1
15		59		30		1
16		33		32		1
17		33		10		1
18		32		60		1
19		32		13		1
20		26		25		1
21		39		3		1
22		28		25		ar
23		28		29		ar
24		1		2		1
25		1		38		1
26		3		2		ar
27		3		4		ar
28		30		29		1
29		30		57		1
30		48		13		1
31		2		35		ar
32		40		4		1
33		4		5		ar
34		25		24		ar
35		43		9		1
36		29		21		ar
37		35		65		1
38		35		34		ar
39		5		34		ar
40		5		6		1
41		41		6		1
42		34		64		1
43		6		7		1
44		15		14		1
45		15		31		ar
46		13		14		1
47		13		12		1
48		19		31		ar
49		19		20		1
50		7		8		2
51		7		9		1
52		24		55		1
53		24		22		ar
54		10		9		1
55		10		11		1
56		21		22		ar
57		21		20		1
58		9		42		1
59		14		49		1
60		22		23		1
61		46		12		1
62		54		23		1
63		12		11		1
64		12		47		1
65		23		53		1
66		23		52		1
67		11		45		1
68		11		44		1

