@<TRIPOS>MOLECULE
WZY-2015-BMC-4248-3-3c
 46 48 0 0 0
SMALL
MULLIKEN_CHARGES
****
Gaussian 16 #p B3LYP/6-31G* opt
@<TRIPOS>ATOM
1		C		-4.8537		-2.2122		-0.1089		C.3		1		UNL1		-0.5329
2		C		-4.9271		-0.7055		-0.1059		C.ar		1		UNL1		0.1736
3		C		-6.0590		-0.0287		0.3514		C.ar		1		UNL1		-0.2272
4		C		-6.1134		1.3728		0.3289		C.ar		1		UNL1		0.1678
5		C		-7.2847		2.0508		0.8036		C.1		1		UNL1		0.2331
6		N		-8.2338		2.6006		1.1910		N.1		1		UNL1		-0.4743
7		C		-5.0288		2.1129		-0.1648		C.ar		1		UNL1		-0.2272
8		C		-3.8805		1.4701		-0.6303		C.ar		1		UNL1		0.1733
9		C		-2.7097		2.2441		-1.1831		C.3		1		UNL1		-0.5329
10		C		-3.8567		0.0691		-0.5756		C.ar		1		UNL1		0.1900
11		O		-2.7527		-0.5924		-1.1156		O.3		1		UNL1		-0.5227
12		C		-1.6954		-0.9163		-0.3258		C.ar		1		UNL1		0.5172
13		C		-1.6185		-0.6140		1.0437		C.ar		1		UNL1		-0.2021
14		C		-0.4550		-1.0236		1.6806		C.ar		1		UNL1		0.0556
15		N		0.5415		-1.6674		1.0551		N.ar		1		UNL1		-0.4166
16		C		0.3402		-1.8942		-0.2432		C.ar		1		UNL1		0.2490
17		S		1.5930		-2.7519		-1.1790		S.3		1		UNL1		0.1566
18		C		2.8662		-3.0460		0.1042		C.3		1		UNL1		-0.5304
19		C		3.7585		-1.8795		0.5614		C.2		1		UNL1		0.6296
20		O		4.4051		-2.0112		1.5907		O.2		1		UNL1		-0.4958
21		N		3.7991		-0.7929		-0.2661		N.am		1		UNL1		-0.7240
22		C		4.5472		0.3962		-0.1251		C.ar		1		UNL1		0.3559
23		C		4.3980		1.3728		-1.1224		C.ar		1		UNL1		-0.1992
24		C		5.1004		2.5727		-1.0567		C.ar		1		UNL1		-0.2016
25		C		5.9551		2.7893		0.0174		C.ar		1		UNL1		0.3808
26		F		6.6401		3.9521		0.0889		F		1		UNL1		-0.3007
27		C		6.1202		1.8387		1.0162		C.ar		1		UNL1		-0.2128
28		C		5.4172		0.6362		0.9505		C.ar		1		UNL1		-0.1610
29		N		-0.7262		-1.5514		-0.9727		N.ar		1		UNL1		-0.4626
30		H		-4.5806		-2.5915		-1.0992		H		1		UNL1		0.1895
31		H		-5.8150		-2.6473		0.1769		H		1		UNL1		0.1671
32		H		-4.0964		-2.5798		0.5942		H		1		UNL1		0.1729
33		H		-6.9095		-0.5914		0.7232		H		1		UNL1		0.1602
34		H		-5.0870		3.1965		-0.1896		H		1		UNL1		0.1603
35		H		-2.4341		1.8830		-2.1796		H		1		UNL1		0.1882
36		H		-1.8219		2.1395		-0.5477		H		1		UNL1		0.1729
37		H		-2.9476		3.3088		-1.2532		H		1		UNL1		0.1674
38		H		-2.4081		-0.0943		1.5711		H		1		UNL1		0.1695
39		H		-0.3070		-0.8290		2.7409		H		1		UNL1		0.1710
40		H		2.3915		-3.4499		0.9986		H		1		UNL1		0.2302
41		H		3.5140		-3.8228		-0.3173		H		1		UNL1		0.2084
42		H		3.1955		-0.8397		-1.0792		H		1		UNL1		0.3554
43		H		3.7273		1.1924		-1.9596		H		1		UNL1		0.1359
44		H		4.9925		3.3327		-1.8233		H		1		UNL1		0.1476
45		H		6.7970		2.0412		1.8400		H		1		UNL1		0.1507
46		H		5.5331		-0.1159		1.7180		H		1		UNL1		0.1944
@<TRIPOS>BOND
1		35		9		1
2		43		23		1
3		44		24		1
4		37		9		1
5		9		8		1
6		9		36		1
7		17		16		1
8		17		18		1
9		23		24		ar
10		23		22		ar
11		11		10		1
12		11		12		1
13		30		1		1
14		42		21		1
15		24		25		ar
16		29		12		ar
17		29		16		ar
18		8		10		ar
19		8		7		ar
20		10		2		ar
21		12		13		ar
22		41		18		1
23		21		22		1
24		21		19		1
25		16		15		ar
26		34		7		1
27		7		4		ar
28		22		28		ar
29		1		2		1
30		1		31		1
31		1		32		1
32		2		3		ar
33		25		26		1
34		25		27		ar
35		18		19		1
36		18		40		1
37		4		3		ar
38		4		5		1
39		3		33		1
40		19		20		2
41		5		6		3
42		28		27		ar
43		28		46		1
44		27		45		1
45		13		38		1
46		13		14		ar
47		15		14		ar
48		14		39		1

