@<TRIPOS>MOLECULE
WZY-2015-EJMC-1-4-7n
 62 65 0 0 0
SMALL
MULLIKEN_CHARGES
****
Gaussian 16 #p B3LYP/6-31G* opt
@<TRIPOS>ATOM
1		C		-6.2218		0.8791		-2.4145		C.3		1		UNL1		-0.5346
2		C		-5.9538		1.5690		-1.1012		C.ar		1		UNL1		0.1779
3		C		-5.7205		2.9429		-1.0318		C.ar		1		UNL1		-0.2306
4		C		-5.4714		3.5653		0.2004		C.ar		1		UNL1		0.1660
5		C		-5.2349		4.9785		0.2539		C.1		1		UNL1		0.2289
6		N		-5.0411		6.1250		0.2972		N.1		1		UNL1		-0.4812
7		C		-5.4591		2.8080		1.3811		C.ar		1		UNL1		-0.2306
8		C		-5.6885		1.4322		1.3468		C.ar		1		UNL1		0.1769
9		C		-5.6783		0.5983		2.6027		C.3		1		UNL1		-0.5339
10		C		-5.9270		0.8451		0.0976		C.ar		1		UNL1		0.2452
11		O		-6.2642		-0.5106		0.0592		O.3		1		UNL1		-0.5693
12		C		-5.2865		-1.4435		-0.1066		C.ar		1		UNL1		0.5683
13		C		-5.6888		-2.7877		-0.1403		C.ar		1		UNL1		-0.2193
14		C		-4.6580		-3.6995		-0.3069		C.ar		1		UNL1		0.0592
15		N		-3.3674		-3.3585		-0.4287		N.ar		1		UNL1		-0.4931
16		C		-3.1159		-2.0378		-0.3875		C.ar		1		UNL1		0.6751
17		N		-1.8280		-1.6245		-0.5243		N.3		1		UNL1		-0.6571
18		C		-0.6868		-2.5116		-0.7180		C.3		1		UNL1		0.0817
19		C		0.4602		-1.7107		-1.3751		C.3		1		UNL1		-0.3199
20		C		1.8200		-2.3217		-1.0400		C.3		1		UNL1		-0.1303
21		N		2.1071		-2.2021		0.4015		N.3		1		UNL1		-0.4299
22		C		3.2638		-2.9982		0.7891		C.3		1		UNL1		-0.2162
23		C		4.6135		-2.3135		0.5055		C.2		1		UNL1		0.5881
24		O		5.6491		-2.9606		0.4443		O.2		1		UNL1		-0.5020
25		N		4.5042		-0.9497		0.3942		N.am		1		UNL1		-0.7324
26		C		5.5124		-0.0041		0.1877		C.ar		1		UNL1		0.3740
27		C		6.8733		-0.3462		0.0917		C.ar		1		UNL1		-0.1546
28		C		7.8448		0.6287		-0.1124		C.ar		1		UNL1		-0.1449
29		C		7.4743		1.9671		-0.2236		C.ar		1		UNL1		-0.0605
30		CL		8.6978		3.2011		-0.4804		Cl		1		UNL1		-0.0158
31		C		6.1367		2.3428		-0.1335		C.ar		1		UNL1		-0.1412
32		C		5.1748		1.3585		0.0692		C.ar		1		UNL1		-0.1376
33		CL		3.4876		1.8622		0.1768		Cl		1		UNL1		-0.0135
34		C		0.9026		-2.3360		1.2563		C.3		1		UNL1		-0.1435
35		C		-0.1992		-3.1727		0.6002		C.3		1		UNL1		-0.2763
36		N		-4.0322		-1.0503		-0.2258		N.ar		1		UNL1		-0.5612
37		H		-7.1467		0.2936		-2.3749		H		1		UNL1		0.1760
38		H		-6.3083		1.6068		-3.2261		H		1		UNL1		0.1613
39		H		-5.4104		0.1855		-2.6654		H		1		UNL1		0.1781
40		H		-5.7336		3.5384		-1.9393		H		1		UNL1		0.1536
41		H		-5.2711		3.2998		2.3305		H		1		UNL1		0.1534
42		H		-5.5767		1.2305		3.4891		H		1		UNL1		0.1613
43		H		-4.8431		-0.1122		2.5946		H		1		UNL1		0.1766
44		H		-6.5991		0.0129		2.6991		H		1		UNL1		0.1762
45		H		-6.7274		-3.0750		-0.0394		H		1		UNL1		0.1504
46		H		-4.8703		-4.7668		-0.3429		H		1		UNL1		0.1502
47		H		-1.6863		-0.6256		-0.4737		H		1		UNL1		0.3339
48		H		-1.0150		-3.3073		-1.3932		H		1		UNL1		0.1682
49		H		0.4536		-0.6742		-1.0094		H		1		UNL1		0.1473
50		H		0.3232		-1.6634		-2.4601		H		1		UNL1		0.1623
51		H		2.6131		-1.8122		-1.5998		H		1		UNL1		0.1549
52		H		1.8386		-3.3792		-1.3640		H		1		UNL1		0.1316
53		H		3.3100		-3.9866		0.3033		H		1		UNL1		0.1612
54		H		3.2376		-3.1763		1.8706		H		1		UNL1		0.1776
55		H		3.5413		-0.6228		0.4622		H		1		UNL1		0.3723
56		H		7.1465		-1.3889		0.1792		H		1		UNL1		0.2032
57		H		8.8892		0.3454		-0.1839		H		1		UNL1		0.1629
58		H		5.8420		3.3817		-0.2192		H		1		UNL1		0.1769
59		H		0.5097		-1.3340		1.4800		H		1		UNL1		0.1448
60		H		1.2012		-2.7701		2.2153		H		1		UNL1		0.1466
61		H		-1.0470		-3.3035		1.2788		H		1		UNL1		0.1619
62		H		0.1852		-4.1767		0.3800		H		1		UNL1		0.1454
@<TRIPOS>BOND
1		38		1		1
2		39		1		1
3		50		19		1
4		1		37		1
5		1		2		1
6		40		3		1
7		51		20		1
8		48		18		1
9		19		20		1
10		19		49		1
11		19		18		1
12		52		20		1
13		2		3		ar
14		2		10		ar
15		20		21		1
16		3		4		ar
17		18		17		1
18		18		35		1
19		17		47		1
20		17		16		1
21		30		29		1
22		15		16		ar
23		15		14		ar
24		16		36		ar
25		46		14		1
26		14		13		ar
27		36		12		ar
28		29		31		ar
29		29		28		ar
30		58		31		1
31		57		28		1
32		13		12		ar
33		13		45		1
34		31		32		ar
35		28		27		ar
36		12		11		1
37		11		10		1
38		32		33		1
39		32		26		ar
40		27		56		1
41		27		26		ar
42		10		8		ar
43		26		25		1
44		4		5		1
45		4		7		ar
46		5		6		3
47		53		22		1
48		62		35		1
49		25		55		1
50		25		23		1
51		21		22		1
52		21		34		1
53		24		23		2
54		23		22		1
55		35		34		1
56		35		61		1
57		22		54		1
58		34		59		1
59		34		60		1
60		8		7		ar
61		8		9		1
62		7		41		1
63		43		9		1
64		9		44		1
65		9		42		1

