@<TRIPOS>MOLECULE
WZY-2015-EJMC-1-4-7b
 65 68 0 0 0
SMALL
MULLIKEN_CHARGES
****
Gaussian 16 #p B3LYP/6-31G* opt
@<TRIPOS>ATOM
1		C		6.7364		-2.6732		-0.1799		C.3		1		UNL1		-0.5581
2		C		7.5235		-1.4589		0.2568		C.ar		1		UNL1		0.1480
3		C		8.8413		-1.5944		0.7006		C.ar		1		UNL1		-0.2009
4		C		9.5949		-0.4941		1.1100		C.ar		1		UNL1		-0.1208
5		C		9.0190		0.7746		1.0755		C.ar		1		UNL1		-0.1494
6		C		7.7069		0.9475		0.6381		C.ar		1		UNL1		-0.1635
7		C		6.9551		-0.1642		0.2284		C.ar		1		UNL1		0.2863
8		N		5.6250		-0.0401		-0.2223		N.am		1		UNL1		-0.7282
9		C		4.8456		1.0772		-0.3431		C.2		1		UNL1		0.5867
10		O		5.1682		2.2258		-0.0691		O.2		1		UNL1		-0.5076
11		C		3.4535		0.7853		-0.9399		C.3		1		UNL1		-0.2316
12		N		3.0501		-0.6186		-0.8467		N.3		1		UNL1		-0.4232
13		C		2.4289		-0.9609		0.4398		C.3		1		UNL1		-0.1574
14		C		1.0112		-0.3562		0.6254		C.3		1		UNL1		-0.2870
15		C		0.3111		-0.1287		-0.7381		C.3		1		UNL1		0.0645
16		N		-1.1392		-0.0737		-0.6207		N.3		1		UNL1		-0.6502
17		C		-1.8471		1.0501		-0.3193		C.ar		1		UNL1		0.6743
18		N		-1.1949		2.2253		-0.2781		N.ar		1		UNL1		-0.4931
19		C		-1.9555		3.2957		-0.0137		C.ar		1		UNL1		0.0611
20		C		-3.3220		3.2381		0.2163		C.ar		1		UNL1		-0.2204
21		C		-3.8741		1.9500		0.1562		C.ar		1		UNL1		0.5684
22		O		-5.2124		1.8393		0.3848		O.3		1		UNL1		-0.5695
23		C		-5.8175		0.5806		0.3452		C.ar		1		UNL1		0.2461
24		C		-5.9501		-0.1262		1.5473		C.ar		1		UNL1		0.1760
25		C		-5.3508		0.4048		2.8246		C.3		1		UNL1		-0.5335
26		C		-6.6495		-1.3329		1.5141		C.ar		1		UNL1		-0.2309
27		C		-7.1972		-1.8098		0.3139		C.ar		1		UNL1		0.1656
28		C		-7.9122		-3.0525		0.2972		C.1		1		UNL1		0.2285
29		N		-8.4897		-4.0625		0.2832		N.1		1		UNL1		-0.4822
30		C		-7.0502		-1.0702		-0.8690		C.ar		1		UNL1		-0.2308
31		C		-6.3567		0.1405		-0.8705		C.ar		1		UNL1		0.1787
32		C		-6.1839		0.9500		-2.1303		C.3		1		UNL1		-0.5350
33		N		-3.1728		0.8620		-0.1039		N.ar		1		UNL1		-0.5620
34		C		0.7370		-1.2141		-1.7332		C.3		1		UNL1		-0.3071
35		C		2.2706		-1.1663		-1.9746		C.3		1		UNL1		-0.1329
36		H		6.4167		-2.6057		-1.2293		H		1		UNL1		0.1610
37		H		5.8312		-2.8217		0.4254		H		1		UNL1		0.1597
38		H		7.3415		-3.5792		-0.0841		H		1		UNL1		0.1642
39		H		9.2821		-2.5886		0.7234		H		1		UNL1		0.1189
40		H		10.6175		-0.6295		1.4506		H		1		UNL1		0.1234
41		H		9.5901		1.6441		1.3902		H		1		UNL1		0.1290
42		H		7.2509		1.9274		0.6069		H		1		UNL1		0.1843
43		H		5.1305		-0.8820		-0.5043		H		1		UNL1		0.3603
44		H		2.7627		1.4930		-0.4595		H		1		UNL1		0.1742
45		H		3.5076		1.0738		-1.9960		H		1		UNL1		0.1745
46		H		3.0964		-0.6451		1.2484		H		1		UNL1		0.1589
47		H		2.3747		-2.0556		0.4898		H		1		UNL1		0.1457
48		H		0.4066		-1.0447		1.2298		H		1		UNL1		0.1354
49		H		1.0441		0.5926		1.1709		H		1		UNL1		0.1659
50		H		0.6091		0.8471		-1.1293		H		1		UNL1		0.1807
51		H		-1.6533		-0.9390		-0.5179		H		1		UNL1		0.3291
52		H		-1.4333		4.2506		0.0183		H		1		UNL1		0.1527
53		H		-3.9263		4.1091		0.4341		H		1		UNL1		0.1503
54		H		-4.2561		0.4274		2.7645		H		1		UNL1		0.1769
55		H		-5.6838		1.4289		3.0247		H		1		UNL1		0.1767
56		H		-5.6305		-0.2219		3.6760		H		1		UNL1		0.1607
57		H		-6.7737		-1.9095		2.4255		H		1		UNL1		0.1528
58		H		-7.4828		-1.4446		-1.7916		H		1		UNL1		0.1529
59		H		-6.5139		1.9845		-1.9867		H		1		UNL1		0.1761
60		H		-6.7570		0.5157		-2.9541		H		1		UNL1		0.1606
61		H		-5.1299		0.9853		-2.4308		H		1		UNL1		0.1794
62		H		0.4500		-2.1985		-1.3357		H		1		UNL1		0.1340
63		H		0.2030		-1.0909		-2.6817		H		1		UNL1		0.1565
64		H		2.4909		-0.5618		-2.8597		H		1		UNL1		0.1497
65		H		2.6294		-2.1819		-2.1894		H		1		UNL1		0.1462
@<TRIPOS>BOND
1		60		32		1
2		64		35		1
3		63		34		1
4		61		32		1
5		65		35		1
6		32		59		1
7		32		31		1
8		45		11		1
9		35		34		1
10		35		12		1
11		58		30		1
12		34		62		1
13		34		15		1
14		36		1		1
15		50		15		1
16		11		12		1
17		11		44		1
18		11		9		1
19		31		30		ar
20		31		23		ar
21		30		27		ar
22		12		13		1
23		15		16		1
24		15		14		1
25		16		51		1
26		16		17		1
27		43		8		1
28		9		8		1
29		9		10		2
30		17		18		ar
31		17		33		ar
32		18		19		ar
33		8		7		1
34		1		38		1
35		1		2		1
36		1		37		1
37		33		21		ar
38		19		52		1
39		19		20		ar
40		21		20		ar
41		21		22		1
42		20		53		1
43		7		2		ar
44		7		6		ar
45		2		3		ar
46		29		28		3
47		28		27		1
48		27		26		ar
49		23		22		1
50		23		24		ar
51		13		47		1
52		13		14		1
53		13		46		1
54		42		6		1
55		14		49		1
56		14		48		1
57		6		5		ar
58		3		39		1
59		3		4		ar
60		5		4		ar
61		5		41		1
62		4		40		1
63		26		24		ar
64		26		57		1
65		24		25		1
66		54		25		1
67		25		55		1
68		25		56		1

