@<TRIPOS>MOLECULE
WZY-2015-BMC-4248-3-3h
 46 48 0 0 0
SMALL
MULLIKEN_CHARGES
****
Gaussian 16 #p B3LYP/6-31G* opt
@<TRIPOS>ATOM
1		C		-4.0131		0.5940		2.3434		C.3		1		UNL1		-0.5308
2		C		-4.0540		-0.4347		1.2407		C.ar		1		UNL1		0.1742
3		C		-5.1071		-1.3438		1.1274		C.ar		1		UNL1		-0.2268
4		C		-5.1190		-2.3004		0.1018		C.ar		1		UNL1		0.1702
5		C		-6.2102		-3.2257		-0.0001		C.1		1		UNL1		0.2348
6		N		-7.0968		-3.9738		-0.0840		N.1		1		UNL1		-0.4702
7		C		-4.0642		-2.3588		-0.8206		C.ar		1		UNL1		-0.2277
8		C		-2.9927		-1.4668		-0.7392		C.ar		1		UNL1		0.1766
9		C		-1.8474		-1.5263		-1.7199		C.3		1		UNL1		-0.5415
10		C		-3.0254		-0.5167		0.2918		C.ar		1		UNL1		0.1864
11		O		-1.9269		0.3368		0.4528		O.3		1		UNL1		-0.5403
12		C		-1.8727		1.5129		-0.2272		C.ar		1		UNL1		0.5466
13		C		-2.8497		1.9525		-1.1245		C.ar		1		UNL1		-0.2048
14		C		-2.5757		3.1642		-1.7560		C.ar		1		UNL1		0.0548
15		N		-1.4777		3.8868		-1.5246		N.ar		1		UNL1		-0.4180
16		C		-0.6279		3.3737		-0.6257		C.ar		1		UNL1		0.2655
17		S		0.7993		4.3900		-0.3626		S.3		1		UNL1		0.2292
18		C		1.5986		3.6295		1.1090		C.3		1		UNL1		-0.5487
19		C		2.5790		2.4898		0.8105		C.2		1		UNL1		0.6083
20		O		3.7804		2.6957		0.7228		O.2		1		UNL1		-0.4813
21		N		1.9719		1.2644		0.6953		N.am		1		UNL1		-0.7311
22		C		2.5672		0.0139		0.4631		C.ar		1		UNL1		0.3582
23		C		1.7319		-1.1153		0.4975		C.ar		1		UNL1		-0.1984
24		C		2.2538		-2.3824		0.2748		C.ar		1		UNL1		-0.1383
25		C		3.6156		-2.5553		0.0168		C.ar		1		UNL1		-0.0742
26		CL		4.2275		-4.1703		-0.2560		Cl		1		UNL1		0.0081
27		C		4.4484		-1.4305		-0.0105		C.ar		1		UNL1		-0.0895
28		CL		6.1615		-1.5834		-0.3243		Cl		1		UNL1		0.0169
29		C		3.9354		-0.1516		0.2102		C.ar		1		UNL1		-0.1573
30		N		-0.7700		2.2156		0.0326		N.ar		1		UNL1		-0.5184
31		H		-4.0755		1.6138		1.9448		H		1		UNL1		0.1734
32		H		-4.8479		0.4531		3.0349		H		1		UNL1		0.1704
33		H		-3.0789		0.5285		2.9111		H		1		UNL1		0.1849
34		H		-5.9236		-1.3142		1.8419		H		1		UNL1		0.1632
35		H		-4.0792		-3.1103		-1.6036		H		1		UNL1		0.1641
36		H		-0.8810		-1.5880		-1.2085		H		1		UNL1		0.1856
37		H		-1.9446		-2.3973		-2.3731		H		1		UNL1		0.1732
38		H		-1.8150		-0.6336		-2.3560		H		1		UNL1		0.1762
39		H		-3.7487		1.3866		-1.3306		H		1		UNL1		0.1726
40		H		-3.2740		3.5733		-2.4836		H		1		UNL1		0.1724
41		H		0.8151		3.3300		1.8102		H		1		UNL1		0.2046
42		H		2.1823		4.4414		1.5467		H		1		UNL1		0.2213
43		H		0.9526		1.2867		0.7046		H		1		UNL1		0.3822
44		H		0.6735		-0.9966		0.7136		H		1		UNL1		0.1513
45		H		1.6087		-3.2540		0.3068		H		1		UNL1		0.1582
46		H		4.5887		0.7087		0.1892		H		1		UNL1		0.2136
@<TRIPOS>BOND
1		40		14		1
2		37		9		1
3		38		9		1
4		14		15		ar
5		14		13		ar
6		9		36		1
7		9		8		1
8		35		7		1
9		15		16		ar
10		39		13		1
11		13		12		ar
12		7		8		ar
13		7		4		ar
14		8		10		ar
15		16		17		1
16		16		30		ar
17		17		18		1
18		28		27		1
19		26		25		1
20		12		30		ar
21		12		11		1
22		6		5		3
23		27		25		ar
24		27		29		ar
25		5		4		1
26		25		24		ar
27		4		3		ar
28		46		29		1
29		29		22		ar
30		24		45		1
31		24		23		ar
32		10		11		1
33		10		2		ar
34		22		23		ar
35		22		21		1
36		23		44		1
37		21		43		1
38		21		19		1
39		20		19		2
40		19		18		1
41		18		42		1
42		18		41		1
43		3		2		ar
44		3		34		1
45		2		1		1
46		31		1		1
47		1		33		1
48		1		32		1

