@<TRIPOS>MOLECULE
WZY-2015-EJMC-1-4-4a
 46 48 0 0 0
SMALL
MULLIKEN_CHARGES
****
Gaussian 16 #p B3LYP/6-31G* opt
@<TRIPOS>ATOM
1		C		3.8041		-1.9171		1.5039		C.3		1		UNL1		-0.5328
2		C		3.9256		-0.5627		0.8508		C.ar		1		UNL1		0.1730
3		C		5.1654		0.0487		0.6577		C.ar		1		UNL1		-0.2276
4		C		5.2535		1.3175		0.0658		C.ar		1		UNL1		0.1678
5		C		6.5365		1.9290		-0.1264		C.1		1		UNL1		0.2328
6		N		7.5776		2.4231		-0.2855		N.1		1		UNL1		-0.4752
7		C		4.0900		1.9932		-0.3311		C.ar		1		UNL1		-0.2274
8		C		2.8329		1.4128		-0.1541		C.ar		1		UNL1		0.1743
9		C		1.5668		2.1284		-0.5546		C.3		1		UNL1		-0.5336
10		C		2.7873		0.1358		0.4237		C.ar		1		UNL1		0.1905
11		O		1.5354		-0.4233		0.6847		O.3		1		UNL1		-0.5207
12		C		0.9333		-1.2117		-0.2422		C.ar		1		UNL1		0.5250
13		C		1.5024		-1.5532		-1.4758		C.ar		1		UNL1		-0.2023
14		C		0.7261		-2.3784		-2.2845		C.ar		1		UNL1		0.0496
15		N		-0.4846		-2.8279		-1.9373		N.ar		1		UNL1		-0.4200
16		C		-0.9103		-2.4251		-0.7340		C.ar		1		UNL1		0.2476
17		S		-2.5260		-3.0443		-0.3047		S.3		1		UNL1		0.1580
18		C		-2.7915		-2.2736		1.3354		C.3		1		UNL1		-0.5326
19		C		-3.1574		-0.7809		1.4185		C.2		1		UNL1		0.6287
20		O		-3.0851		-0.2275		2.5060		O.2		1		UNL1		-0.4937
21		N		-3.5895		-0.2009		0.2588		N.am		1		UNL1		-0.7224
22		C		-4.0144		1.1269		0.0372		C.ar		1		UNL1		0.3533
23		C		-4.0698		2.0975		1.0492		C.ar		1		UNL1		-0.1632
24		C		-4.5029		3.3861		0.7353		C.ar		1		UNL1		-0.1450
25		C		-4.8816		3.7277		-0.5635		C.ar		1		UNL1		-0.1275
26		C		-4.8250		2.7577		-1.5662		C.ar		1		UNL1		-0.1344
27		C		-4.3948		1.4673		-1.2707		C.ar		1		UNL1		-0.1994
28		N		-0.2687		-1.6432		0.1324		N.ar		1		UNL1		-0.4590
29		H		3.1087		-1.8854		2.3493		H		1		UNL1		0.1894
30		H		3.4221		-2.6694		0.8031		H		1		UNL1		0.1720
31		H		4.7764		-2.2604		1.8672		H		1		UNL1		0.1666
32		H		6.0714		-0.4588		0.9738		H		1		UNL1		0.1595
33		H		4.1694		2.9806		-0.7748		H		1		UNL1		0.1599
34		H		1.7835		3.1537		-0.8658		H		1		UNL1		0.1667
35		H		1.0659		1.6231		-1.3893		H		1		UNL1		0.1720
36		H		0.8520		2.1599		0.2742		H		1		UNL1		0.1953
37		H		2.4785		-1.2015		-1.7845		H		1		UNL1		0.1682
38		H		1.0930		-2.6941		-3.2593		H		1		UNL1		0.1659
39		H		-3.6090		-2.8471		1.7860		H		1		UNL1		0.2085
40		H		-1.9017		-2.4147		1.9496		H		1		UNL1		0.2306
41		H		-3.5887		-0.8029		-0.5569		H		1		UNL1		0.3558
42		H		-3.7780		1.8330		2.0558		H		1		UNL1		0.1860
43		H		-4.5437		4.1314		1.5254		H		1		UNL1		0.1335
44		H		-5.2179		4.7350		-0.7922		H		1		UNL1		0.1278
45		H		-5.1171		3.0027		-2.5839		H		1		UNL1		0.1308
46		H		-4.3540		0.7153		-2.0564		H		1		UNL1		0.1277
@<TRIPOS>BOND
1		38		14		1
2		45		26		1
3		14		15		ar
4		14		13		ar
5		46		27		1
6		15		16		ar
7		37		13		1
8		26		27		ar
9		26		25		ar
10		13		12		ar
11		35		9		1
12		27		22		ar
13		34		9		1
14		44		25		1
15		33		7		1
16		16		17		1
17		16		28		ar
18		25		24		ar
19		41		21		1
20		9		8		1
21		9		36		1
22		7		8		ar
23		7		4		ar
24		17		18		1
25		6		5		3
26		12		28		ar
27		12		11		1
28		8		10		ar
29		5		4		1
30		22		21		1
31		22		23		ar
32		4		3		ar
33		21		19		1
34		10		11		1
35		10		2		ar
36		3		2		ar
37		3		32		1
38		24		23		ar
39		24		43		1
40		30		1		1
41		2		1		1
42		23		42		1
43		18		19		1
44		18		39		1
45		18		40		1
46		19		20		2
47		1		31		1
48		1		29		1

