@<TRIPOS>MOLECULE
WZY-2015-EJMC-1-4-7v
 64 67 0 0 0
SMALL
MULLIKEN_CHARGES
****
Gaussian 16 #p B3LYP/6-31G* opt
@<TRIPOS>ATOM
1		C		-6.9124		-1.0184		-2.4989		C.3		1		UNL1		-0.5316
2		C		-7.6067		-0.5067		-1.2616		C.ar		1		UNL1		0.1728
3		C		-8.9299		-0.8432		-0.9725		C.ar		1		UNL1		-0.2280
4		C		-9.5610		-0.3445		0.1769		C.ar		1		UNL1		0.1660
5		C		-10.9211		-0.7014		0.4584		C.1		1		UNL1		0.2313
6		N		-12.0237		-0.9928		0.6881		N.1		1		UNL1		-0.4781
7		C		-8.8668		0.5089		1.0475		C.ar		1		UNL1		-0.2281
8		C		-7.5427		0.8661		0.7893		C.ar		1		UNL1		0.1726
9		C		-6.7810		1.7938		1.7026		C.3		1		UNL1		-0.5313
10		C		-6.9388		0.3367		-0.3610		C.ar		1		UNL1		0.1980
11		O		-5.6500		0.7530		-0.6796		O.3		1		UNL1		-0.5353
12		C		-4.5688		0.0403		-0.2418		C.ar		1		UNL1		0.5338
13		C		-4.6734		-1.1211		0.5404		C.ar		1		UNL1		-0.2281
14		C		-3.4587		-1.6979		0.8951		C.ar		1		UNL1		0.0583
15		N		-2.2662		-1.2162		0.5363		N.ar		1		UNL1		-0.4909
16		C		-2.3057		-0.1027		-0.2249		C.ar		1		UNL1		0.6777
17		N		-1.1245		0.4196		-0.6556		N.3		1		UNL1		-0.6536
18		C		0.1906		-0.0530		-0.2478		C.3		1		UNL1		0.0718
19		C		1.2325		0.3015		-1.3184		C.3		1		UNL1		-0.2917
20		C		2.6379		-0.1545		-0.8828		C.3		1		UNL1		-0.1591
21		N		3.0519		0.3541		0.4372		N.3		1		UNL1		-0.4127
22		C		3.4717		1.7550		0.4152		C.3		1		UNL1		-0.2250
23		C		4.9488		1.9499		0.0270		C.2		1		UNL1		0.5852
24		O		5.3635		3.0392		-0.3436		O.2		1		UNL1		-0.5030
25		N		5.7002		0.8160		0.1931		N.am		1		UNL1		-0.7196
26		C		7.0741		0.6264		-0.0126		C.ar		1		UNL1		0.3662
27		C		7.9365		1.6542		-0.4372		C.ar		1		UNL1		-0.1441
28		C		9.2938		1.3885		-0.6194		C.ar		1		UNL1		-0.1540
29		C		9.8250		0.1210		-0.3899		C.ar		1		UNL1		-0.1508
30		C		8.9509		-0.8787		0.0300		C.ar		1		UNL1		0.2763
31		N		9.4769		-2.2309		0.2820		N.pl3		1		UNL1		0.3778
32		O		10.6806		-2.4173		0.1097		O.2		1		UNL1		-0.3916
33		O		8.6820		-3.0967		0.6502		O.2		1		UNL1		-0.3994
34		C		7.5929		-0.6535		0.2224		C.ar		1		UNL1		-0.2335
35		C		2.0510		0.0184		1.4630		C.3		1		UNL1		-0.1590
36		C		0.6285		0.4958		1.1243		C.3		1		UNL1		-0.2715
37		N		-3.4148		0.5551		-0.6266		N.ar		1		UNL1		-0.5411
38		H		-7.6107		-1.5663		-3.1374		H		1		UNL1		0.1629
39		H		-6.4829		-0.1944		-3.0784		H		1		UNL1		0.1857
40		H		-6.0866		-1.6933		-2.2436		H		1		UNL1		0.1747
41		H		-9.4800		-1.4936		-1.6454		H		1		UNL1		0.1569
42		H		-9.3683		0.8982		1.9280		H		1		UNL1		0.1567
43		H		-7.4341		2.1921		2.4839		H		1		UNL1		0.1628
44		H		-6.3540		2.6332		1.1437		H		1		UNL1		0.1854
45		H		-5.9457		1.2773		2.1905		H		1		UNL1		0.1738
46		H		-5.6221		-1.5368		0.8527		H		1		UNL1		0.1554
47		H		-3.4429		-2.5987		1.5071		H		1		UNL1		0.1510
48		H		-1.2021		1.3050		-1.1380		H		1		UNL1		0.3321
49		H		0.1175		-1.1435		-0.1681		H		1		UNL1		0.1662
50		H		1.2289		1.3882		-1.4889		H		1		UNL1		0.1371
51		H		0.9702		-0.1699		-2.2731		H		1		UNL1		0.1568
52		H		2.6604		-1.2516		-0.8363		H		1		UNL1		0.1521
53		H		3.3857		0.1476		-1.6240		H		1		UNL1		0.1567
54		H		3.3605		2.1764		1.4217		H		1		UNL1		0.1804
55		H		2.8901		2.4020		-0.2565		H		1		UNL1		0.1663
56		H		5.1422		0.0188		0.4953		H		1		UNL1		0.3571
57		H		7.5295		2.6399		-0.6164		H		1		UNL1		0.1982
58		H		9.9482		2.1907		-0.9473		H		1		UNL1		0.1515
59		H		10.8755		-0.1010		-0.5264		H		1		UNL1		0.1794
60		H		6.9617		-1.4710		0.5512		H		1		UNL1		0.1769
61		H		2.3842		0.4297		2.4218		H		1		UNL1		0.1506
62		H		2.0481		-1.0752		1.5703		H		1		UNL1		0.1511
63		H		-0.0748		0.1578		1.8935		H		1		UNL1		0.1618
64		H		0.5918		1.5942		1.1066		H		1		UNL1		0.1335
@<TRIPOS>BOND
1		38		1		1
2		39		1		1
3		1		40		1
4		1		2		1
5		51		19		1
6		41		3		1
7		53		20		1
8		50		19		1
9		19		20		1
10		19		18		1
11		2		3		ar
12		2		10		ar
13		48		17		1
14		3		4		ar
15		58		28		1
16		20		52		1
17		20		21		1
18		11		10		1
19		11		12		1
20		17		18		1
21		17		16		1
22		37		12		ar
23		37		16		ar
24		28		27		ar
25		28		29		ar
26		57		27		1
27		59		29		1
28		27		26		ar
29		29		30		ar
30		10		8		ar
31		24		23		2
32		55		22		1
33		18		49		1
34		18		36		1
35		12		13		ar
36		16		15		ar
37		26		25		1
38		26		34		ar
39		23		25		1
40		23		22		1
41		30		34		ar
42		30		31		1
43		32		31		2
44		4		5		1
45		4		7		ar
46		25		56		1
47		34		60		1
48		31		33		2
49		22		21		1
50		22		54		1
51		21		35		1
52		5		6		3
53		15		14		ar
54		13		46		1
55		13		14		ar
56		8		7		ar
57		8		9		1
58		14		47		1
59		7		42		1
60		64		36		1
61		36		35		1
62		36		63		1
63		44		9		1
64		35		62		1
65		35		61		1
66		9		45		1
67		9		43		1

