@<TRIPOS>MOLECULE
WZY-2015-EJMC-1-4-7f
 68 71 0 0 0
SMALL
MULLIKEN_CHARGES
****
Gaussian 16 #p B3LYP/6-31G* opt
@<TRIPOS>ATOM
1		C		10.6267		1.7401		-0.1789		C.3		1		UNL1		-0.5329
2		C		9.2072		1.2246		-0.1812		C.ar		1		UNL1		0.1382
3		C		8.3818		1.4249		-1.2921		C.ar		1		UNL1		-0.1927
4		C		7.0698		0.9617		-1.3228		C.ar		1		UNL1		-0.1941
5		C		6.5471		0.2744		-0.2208		C.ar		1		UNL1		0.3658
6		N		5.2144		-0.1761		-0.2989		N.am		1		UNL1		-0.7163
7		C		4.4672		-0.8510		0.6235		C.2		1		UNL1		0.5799
8		O		4.8335		-1.2052		1.7374		O.2		1		UNL1		-0.5109
9		C		3.0561		-1.2116		0.1172		C.3		1		UNL1		-0.2251
10		N		2.5993		-0.3906		-1.0039		N.3		1		UNL1		-0.4228
11		C		1.7444		-1.0551		-2.0127		C.3		1		UNL1		-0.1349
12		C		0.2339		-0.7380		-1.8713		C.3		1		UNL1		-0.2916
13		C		-0.1269		-0.4656		-0.4010		C.3		1		UNL1		0.0765
14		N		-1.5545		-0.2791		-0.1832		N.3		1		UNL1		-0.6552
15		C		-2.4585		-1.2876		-0.0604		C.ar		1		UNL1		0.6779
16		N		-2.0046		-2.5540		-0.0440		N.ar		1		UNL1		-0.4949
17		C		-2.9427		-3.4972		0.1168		C.ar		1		UNL1		0.0600
18		C		-4.2969		-3.2303		0.2487		C.ar		1		UNL1		-0.2199
19		C		-4.6355		-1.8695		0.1992		C.ar		1		UNL1		0.5682
20		O		-5.9561		-1.5568		0.3143		O.3		1		UNL1		-0.5696
21		C		-6.3552		-0.2185		0.2694		C.ar		1		UNL1		0.2457
22		C		-6.4562		0.4856		1.4761		C.ar		1		UNL1		0.1786
23		C		-6.0307		-0.1459		2.7771		C.3		1		UNL1		-0.5351
24		C		-6.9580		1.7865		1.4249		C.ar		1		UNL1		-0.2307
25		C		-7.3459		2.3569		0.2034		C.ar		1		UNL1		0.1657
26		C		-7.8596		3.6950		0.1687		C.1		1		UNL1		0.2286
27		N		-8.2741		4.7818		0.1396		N.1		1		UNL1		-0.4821
28		C		-7.2365		1.6179		-0.9839		C.ar		1		UNL1		-0.2308
29		C		-6.7386		0.3147		-0.9678		C.ar		1		UNL1		0.1763
30		C		-6.6096		-0.4972		-2.2315		C.3		1		UNL1		-0.5336
31		N		-3.7538		-0.8990		0.0485		N.ar		1		UNL1		-0.5619
32		C		0.6484		0.7638		0.1180		C.3		1		UNL1		-0.3038
33		C		2.0252		0.8939		-0.5865		C.3		1		UNL1		-0.1548
34		C		7.3613		0.0636		0.9017		C.ar		1		UNL1		-0.2335
35		C		8.6782		0.5313		0.9282		C.ar		1		UNL1		0.1192
36		C		9.5248		0.2853		2.1558		C.3		1		UNL1		-0.5330
37		H		10.8615		2.2500		-1.1185		H		1		UNL1		0.1512
38		H		10.8024		2.4524		0.6382		H		1		UNL1		0.1575
39		H		11.3565		0.9297		-0.0497		H		1		UNL1		0.1576
40		H		8.7744		1.9567		-2.1560		H		1		UNL1		0.1188
41		H		6.4517		1.1320		-2.2020		H		1		UNL1		0.1172
42		H		4.6970		0.0239		-1.1518		H		1		UNL1		0.3478
43		H		3.1038		-2.2585		-0.2039		H		1		UNL1		0.1763
44		H		2.4017		-1.1876		1.0011		H		1		UNL1		0.1632
45		H		2.0824		-0.7561		-3.0142		H		1		UNL1		0.1442
46		H		1.9082		-2.1343		-1.9343		H		1		UNL1		0.1510
47		H		-0.0329		0.1415		-2.4731		H		1		UNL1		0.1314
48		H		-0.3605		-1.5762		-2.2479		H		1		UNL1		0.1629
49		H		0.1543		-1.3492		0.1796		H		1		UNL1		0.1746
50		H		-1.9522		0.6455		-0.2765		H		1		UNL1		0.3309
51		H		-2.5819		-4.5244		0.1363		H		1		UNL1		0.1500
52		H		-5.0463		-4.0010		0.3740		H		1		UNL1		0.1499
53		H		-6.2785		0.5008		3.6234		H		1		UNL1		0.1611
54		H		-6.5191		-1.1148		2.9274		H		1		UNL1		0.1758
55		H		-4.9488		-0.3233		2.7904		H		1		UNL1		0.1799
56		H		-7.0516		2.3644		2.3392		H		1		UNL1		0.1534
57		H		-7.5446		2.0660		-1.9236		H		1		UNL1		0.1526
58		H		-7.1137		-1.4649		-2.1359		H		1		UNL1		0.1763
59		H		-7.0429		0.0354		-3.0826		H		1		UNL1		0.1606
60		H		-5.5569		-0.7027		-2.4596		H		1		UNL1		0.1767
61		H		0.0724		1.6790		-0.0793		H		1		UNL1		0.1336
62		H		0.7585		0.6979		1.2056		H		1		UNL1		0.1619
63		H		2.7413		1.4088		0.0622		H		1		UNL1		0.1604
64		H		1.9215		1.5107		-1.4876		H		1		UNL1		0.1484
65		H		6.9525		-0.4687		1.7505		H		1		UNL1		0.1769
66		H		8.9642		-0.2644		2.9172		H		1		UNL1		0.1630
67		H		9.8686		1.2259		2.6059		H		1		UNL1		0.1569
68		H		10.4253		-0.2956		1.9171		H		1		UNL1		0.1571
@<TRIPOS>BOND
1		59		30		1
2		45		11		1
3		47		12		1
4		60		30		1
5		48		12		1
6		30		58		1
7		30		29		1
8		41		4		1
9		40		3		1
10		11		46		1
11		11		12		1
12		11		10		1
13		57		28		1
14		12		13		1
15		64		33		1
16		4		3		ar
17		4		5		ar
18		3		2		ar
19		42		6		1
20		37		1		1
21		10		33		1
22		10		9		1
23		28		29		ar
24		28		25		ar
25		29		21		ar
26		33		63		1
27		33		32		1
28		13		14		1
29		13		32		1
30		13		49		1
31		6		5		1
32		6		7		1
33		50		14		1
34		5		34		ar
35		43		9		1
36		14		15		1
37		2		1		1
38		2		35		ar
39		1		39		1
40		1		38		1
41		61		32		1
42		15		16		ar
43		15		31		ar
44		16		17		ar
45		31		19		ar
46		17		51		1
47		17		18		ar
48		9		7		1
49		9		44		1
50		32		62		1
51		27		26		3
52		26		25		1
53		19		18		ar
54		19		20		1
55		25		24		ar
56		18		52		1
57		21		20		1
58		21		22		ar
59		7		8		2
60		34		35		ar
61		34		65		1
62		35		36		1
63		24		22		ar
64		24		56		1
65		22		23		1
66		68		36		1
67		36		67		1
68		36		66		1
69		23		55		1
70		23		54		1
71		23		53		1

