@<TRIPOS>MOLECULE
WZY-2015-EJMC-1-4-7x
 63 66 0 0 0
SMALL
MULLIKEN_CHARGES
****
Gaussian 16 #p B3LYP/6-31G* opt
@<TRIPOS>ATOM
1		C		3.9893		-1.4165		2.4402		C.3		1		UNL1		-0.5314
2		C		4.6913		-1.7690		1.1527		C.ar		1		UNL1		0.1726
3		C		5.7207		-2.7104		1.1137		C.ar		1		UNL1		-0.2283
4		C		6.3504		-3.0334		-0.0977		C.ar		1		UNL1		0.1654
5		C		7.4067		-4.0029		-0.1188		C.1		1		UNL1		0.2305
6		N		8.2652		-4.7880		-0.1356		N.1		1		UNL1		-0.4802
7		C		5.9432		-2.4154		-1.2896		C.ar		1		UNL1		-0.2283
8		C		4.9172		-1.4695		-1.2871		C.ar		1		UNL1		0.1723
9		C		4.4520		-0.8027		-2.5574		C.3		1		UNL1		-0.5313
10		C		4.3200		-1.1601		-0.0557		C.ar		1		UNL1		0.2017
11		O		3.2382		-0.2872		-0.0488		O.3		1		UNL1		-0.5363
12		C		3.4379		1.0539		0.1380		C.ar		1		UNL1		0.5266
13		C		4.6999		1.6293		0.3230		C.ar		1		UNL1		-0.2319
14		C		4.6895		3.0146		0.4923		C.ar		1		UNL1		0.0609
15		N		3.5890		3.7605		0.4859		N.ar		1		UNL1		-0.4925
16		C		2.4293		3.0802		0.3017		C.ar		1		UNL1		0.6722
17		N		1.3054		3.8418		0.3037		N.3		1		UNL1		-0.6500
18		C		-0.0821		3.4142		0.1100		C.3		1		UNL1		0.0740
19		C		-0.3477		2.8379		-1.3040		C.3		1		UNL1		-0.2683
20		C		-1.6088		1.9477		-1.3051		C.3		1		UNL1		-0.1335
21		N		-2.5640		2.4589		-0.3163		N.3		1		UNL1		-0.3916
22		C		-3.9543		2.1599		-0.5338		C.3		1		UNL1		-0.2456
23		C		-4.3796		0.6843		-0.3323		C.2		1		UNL1		0.6060
24		O		-3.5726		-0.2369		-0.3321		O.2		1		UNL1		-0.5046
25		N		-5.7371		0.5248		-0.1873		N.am		1		UNL1		-0.7184
26		C		-6.4912		-0.6666		-0.0609		C.ar		1		UNL1		0.3521
27		C		-5.9146		-1.9434		-0.0268		C.ar		1		UNL1		-0.1669
28		C		-6.7299		-3.0679		0.1001		C.ar		1		UNL1		-0.2099
29		C		-8.1179		-2.9434		0.1959		C.ar		1		UNL1		0.3559
30		O		-8.9583		-4.0177		0.3226		O.3		1		UNL1		-0.6471
31		C		-8.6956		-1.6705		0.1635		C.ar		1		UNL1		-0.1633
32		C		-7.8865		-0.5481		0.0361		C.ar		1		UNL1		-0.2016
33		C		-2.1201		2.2795		1.0720		C.3		1		UNL1		-0.1118
34		C		-0.5898		2.4363		1.1830		C.3		1		UNL1		-0.3125
35		N		2.3113		1.7495		0.1249		N.ar		1		UNL1		-0.5321
36		H		2.9043		-1.5251		2.3389		H		1		UNL1		0.1863
37		H		4.3292		-2.0596		3.2566		H		1		UNL1		0.1610
38		H		4.1804		-0.3754		2.7267		H		1		UNL1		0.1753
39		H		6.0358		-3.2027		2.0285		H		1		UNL1		0.1552
40		H		6.4295		-2.6808		-2.2232		H		1		UNL1		0.1552
41		H		4.6651		0.2728		-2.5444		H		1		UNL1		0.1752
42		H		3.3698		-0.9117		-2.6850		H		1		UNL1		0.1857
43		H		4.9509		-1.2358		-3.4287		H		1		UNL1		0.1610
44		H		5.6157		1.0535		0.3341		H		1		UNL1		0.1518
45		H		5.6270		3.5494		0.6408		H		1		UNL1		0.1486
46		H		1.4923		4.8256		0.4328		H		1		UNL1		0.3356
47		H		-0.6641		4.3362		0.2119		H		1		UNL1		0.1403
48		H		-0.4588		3.6695		-2.0098		H		1		UNL1		0.1285
49		H		0.5126		2.2425		-1.6210		H		1		UNL1		0.1614
50		H		-2.0880		1.9762		-2.2901		H		1		UNL1		0.1305
51		H		-1.3448		0.8976		-1.1172		H		1		UNL1		0.1637
52		H		-4.5605		2.7991		0.1275		H		1		UNL1		0.1434
53		H		-4.2195		2.4391		-1.5641		H		1		UNL1		0.1677
54		H		-6.2869		1.3744		-0.1896		H		1		UNL1		0.3288
55		H		-4.8409		-2.0448		-0.0991		H		1		UNL1		0.1877
56		H		-6.2707		-4.0548		0.1253		H		1		UNL1		0.1236
57		H		-8.4286		-4.8299		0.3307		H		1		UNL1		0.4077
58		H		-9.7741		-1.5761		0.2382		H		1		UNL1		0.1420
59		H		-8.3477		0.4376		0.0110		H		1		UNL1		0.1227
60		H		-2.6224		3.0469		1.6804		H		1		UNL1		0.1244
61		H		-2.4117		1.2976		1.4784		H		1		UNL1		0.1429
62		H		-0.0909		1.4729		1.0497		H		1		UNL1		0.1832
63		H		-0.3267		2.8003		2.1825		H		1		UNL1		0.1376
@<TRIPOS>BOND
1		43		9		1
2		42		9		1
3		9		41		1
4		9		8		1
5		50		20		1
6		40		7		1
7		48		19		1
8		49		19		1
9		53		22		1
10		20		19		1
11		20		51		1
12		20		21		1
13		19		18		1
14		7		8		ar
15		7		4		ar
16		8		10		ar
17		22		23		1
18		22		21		1
19		22		52		1
20		23		24		2
21		23		25		1
22		21		33		1
23		54		25		1
24		25		26		1
25		6		5		3
26		5		4		1
27		55		27		1
28		4		3		ar
29		26		27		ar
30		26		32		ar
31		10		11		1
32		10		2		ar
33		11		12		1
34		27		28		ar
35		59		32		1
36		32		31		ar
37		28		56		1
38		28		29		ar
39		18		47		1
40		18		17		1
41		18		34		1
42		35		12		ar
43		35		16		ar
44		12		13		ar
45		31		29		ar
46		31		58		1
47		29		30		1
48		16		17		1
49		16		15		ar
50		17		46		1
51		30		57		1
52		13		44		1
53		13		14		ar
54		15		14		ar
55		14		45		1
56		62		34		1
57		33		34		1
58		33		61		1
59		33		60		1
60		3		2		ar
61		3		39		1
62		2		1		1
63		34		63		1
64		36		1		1
65		1		38		1
66		1		37		1

