@<TRIPOS>MOLECULE
WZY-2015-BMC-4248-3-3m
 48 50 0 0 0
SMALL
MULLIKEN_CHARGES
****
Gaussian 16 #p B3LYP/6-31G* opt
@<TRIPOS>ATOM
1		C		4.8208		-1.2308		1.3792		C.3		1		UNL1		-0.5335
2		C		4.5675		0.1362		0.7938		C.ar		1		UNL1		0.1743
3		C		5.5975		1.0636		0.6277		C.ar		1		UNL1		-0.2272
4		C		5.3368		2.3367		0.0999		C.ar		1		UNL1		0.1684
5		C		6.4090		3.2748		-0.0656		C.1		1		UNL1		0.2337
6		N		7.2798		4.0337		-0.2031		N.1		1		UNL1		-0.4730
7		C		4.0296		2.6977		-0.2589		C.ar		1		UNL1		-0.2270
8		C		2.9742		1.7967		-0.1073		C.ar		1		UNL1		0.1742
9		C		1.5575		2.1696		-0.4670		C.3		1		UNL1		-0.5337
10		C		3.2784		0.5276		0.4054		C.ar		1		UNL1		0.1880
11		O		2.2226		-0.3568		0.6410		O.3		1		UNL1		-0.5204
12		C		1.8473		-1.2404		-0.3165		C.ar		1		UNL1		0.5259
13		C		2.4587		-1.3518		-1.5722		C.ar		1		UNL1		-0.2009
14		C		1.9253		-2.3221		-2.4153		C.ar		1		UNL1		0.0498
15		N		0.8992		-3.1118		-2.0780		N.ar		1		UNL1		-0.4191
16		C		0.4106		-2.9024		-0.8512		C.ar		1		UNL1		0.2466
17		S		-0.9520		-3.9774		-0.4338		S.3		1		UNL1		0.1629
18		C		-1.3441		-3.4221		1.2656		C.3		1		UNL1		-0.5347
19		C		-2.0831		-2.0902		1.4675		C.2		1		UNL1		0.6335
20		O		-2.1044		-1.5895		2.5792		O.2		1		UNL1		-0.4803
21		N		-2.7243		-1.5843		0.3614		N.am		1		UNL1		-0.7283
22		C		-3.4900		-0.4165		0.2498		C.ar		1		UNL1		0.3834
23		C		-3.7380		0.4502		1.3306		C.ar		1		UNL1		-0.1720
24		C		-4.5063		1.5913		1.1324		C.ar		1		UNL1		-0.1683
25		C		-5.0249		1.8693		-0.1314		C.ar		1		UNL1		0.2821
26		N		-5.8297		3.0754		-0.3307		N.pl3		1		UNL1		0.3731
27		O		-6.0189		3.8076		0.6420		O.2		1		UNL1		-0.4003
28		O		-6.2709		3.2902		-1.4617		O.2		1		UNL1		-0.4025
29		C		-4.7915		1.0203		-1.2136		C.ar		1		UNL1		-0.1549
30		C		-4.0253		-0.1180		-1.0183		C.ar		1		UNL1		-0.2114
31		N		0.8232		-2.0111		0.0473		N.ar		1		UNL1		-0.4622
32		H		4.6480		-2.0238		0.6414		H		1		UNL1		0.1716
33		H		5.8533		-1.3172		1.7275		H		1		UNL1		0.1685
34		H		4.1520		-1.4277		2.2237		H		1		UNL1		0.1892
35		H		6.6105		0.8005		0.9154		H		1		UNL1		0.1610
36		H		3.8373		3.6908		-0.6525		H		1		UNL1		0.1621
37		H		0.8757		1.9809		0.3689		H		1		UNL1		0.1921
38		H		1.4919		3.2271		-0.7358		H		1		UNL1		0.1699
39		H		1.1908		1.5837		-1.3186		H		1		UNL1		0.1703
40		H		3.2890		-0.7257		-1.8724		H		1		UNL1		0.1713
41		H		2.3402		-2.4742		-3.4097		H		1		UNL1		0.1693
42		H		-0.4270		-3.3649		1.8526		H		1		UNL1		0.2343
43		H		-1.9668		-4.2197		1.6863		H		1		UNL1		0.2138
44		H		-2.6031		-2.1193		-0.4922		H		1		UNL1		0.3610
45		H		-3.3282		0.2189		2.3032		H		1		UNL1		0.2019
46		H		-4.7094		2.2719		1.9502		H		1		UNL1		0.1862
47		H		-5.2091		1.2614		-2.1832		H		1		UNL1		0.1843
48		H		-3.8372		-0.7877		-1.8540		H		1		UNL1		0.1469
@<TRIPOS>BOND
1		41		14		1
2		14		15		ar
3		14		13		ar
4		47		29		1
5		15		16		ar
6		40		13		1
7		48		30		1
8		13		12		ar
9		28		26		2
10		39		9		1
11		29		30		ar
12		29		25		ar
13		30		22		ar
14		16		17		1
15		16		31		ar
16		38		9		1
17		36		7		1
18		44		21		1
19		9		8		1
20		9		37		1
21		17		18		1
22		26		25		1
23		26		27		2
24		12		31		ar
25		12		11		1
26		7		8		ar
27		7		4		ar
28		6		5		3
29		25		24		ar
30		8		10		ar
31		5		4		1
32		4		3		ar
33		22		21		1
34		22		23		ar
35		21		19		1
36		10		11		1
37		10		2		ar
38		3		2		ar
39		3		35		1
40		32		1		1
41		2		1		1
42		24		23		ar
43		24		46		1
44		18		19		1
45		18		43		1
46		18		42		1
47		23		45		1
48		1		33		1
49		1		34		1
50		19		20		2

