@<TRIPOS>MOLECULE
WZY-2015-EJMC-1-4-7o
 62 65 0 0 0
SMALL
MULLIKEN_CHARGES
****
Gaussian 16 #p B3LYP/6-31G* opt
@<TRIPOS>ATOM
1		C		-5.3491		2.1090		1.8233		C.3		1		UNL1		-0.5311
2		C		-6.4977		1.6426		0.9642		C.ar		1		UNL1		0.1723
3		C		-7.8206		1.9592		1.2761		C.ar		1		UNL1		-0.2281
4		C		-8.8730		1.5262		0.4557		C.ar		1		UNL1		0.1659
5		C		-10.2264		1.8608		0.7914		C.1		1		UNL1		0.2311
6		N		-11.3245		2.1307		1.0649		N.1		1		UNL1		-0.4784
7		C		-8.6033		0.7734		-0.6970		C.ar		1		UNL1		-0.2281
8		C		-7.2923		0.4388		-1.0390		C.ar		1		UNL1		0.1730
9		C		-6.9774		-0.3570		-2.2809		C.3		1		UNL1		-0.5315
10		C		-6.2663		0.8763		-0.1880		C.ar		1		UNL1		0.1998
11		O		-4.9493		0.6288		-0.5610		O.3		1		UNL1		-0.5370
12		C		-4.3181		-0.5094		-0.1397		C.ar		1		UNL1		0.5304
13		C		-4.9207		-1.4699		0.6810		C.ar		1		UNL1		-0.2301
14		C		-4.1043		-2.5525		1.0103		C.ar		1		UNL1		0.0596
15		N		-2.8509		-2.6999		0.5886		N.ar		1		UNL1		-0.4867
16		C		-2.3927		-1.7060		-0.2098		C.ar		1		UNL1		0.6689
17		N		-1.1274		-1.8630		-0.6831		N.3		1		UNL1		-0.6349
18		C		-0.3781		-0.8429		-1.4115		C.3		1		UNL1		0.0548
19		C		0.6679		-1.5087		-2.3383		C.3		1		UNL1		-0.2903
20		C		2.0424		-1.6518		-1.6442		C.3		1		UNL1		-0.1398
21		N		1.8605		-1.7864		-0.2022		N.3		1		UNL1		-0.4193
22		C		2.7711		-2.6087		0.5640		C.3		1		UNL1		-0.2385
23		C		4.1923		-2.1160		0.9247		C.2		1		UNL1		0.5925
24		O		4.8684		-2.7489		1.7216		O.2		1		UNL1		-0.4961
25		N		4.6141		-0.9776		0.2751		N.am		1		UNL1		-0.7325
26		C		5.8532		-0.3158		0.3738		C.ar		1		UNL1		0.3699
27		C		6.9023		-0.7562		1.1954		C.ar		1		UNL1		-0.1488
28		C		8.0925		-0.0367		1.2269		C.ar		1		UNL1		-0.1452
29		C		8.2708		1.1158		0.4594		C.ar		1		UNL1		-0.0746
30		CL		9.7908		1.9734		0.5446		Cl		1		UNL1		0.0129
31		C		7.2222		1.5521		-0.3590		C.ar		1		UNL1		-0.0791
32		CL		7.3678		2.9856		-1.3495		Cl		1		UNL1		0.0134
33		C		6.0258		0.8406		-0.3988		C.ar		1		UNL1		-0.2000
34		C		1.3075		-0.6079		0.4729		C.3		1		UNL1		-0.1244
35		C		0.3304		0.1369		-0.4578		C.3		1		UNL1		-0.3001
36		N		-3.0738		-0.6050		-0.5829		N.ar		1		UNL1		-0.5419
37		H		-5.7018		2.7757		2.6149		H		1		UNL1		0.1626
38		H		-4.6020		2.6421		1.2257		H		1		UNL1		0.1834
39		H		-4.8356		1.2634		2.2965		H		1		UNL1		0.1744
40		H		-8.0395		2.5504		2.1599		H		1		UNL1		0.1564
41		H		-9.4242		0.4528		-1.3308		H		1		UNL1		0.1565
42		H		-6.2355		0.1577		-2.9006		H		1		UNL1		0.1843
43		H		-6.5580		-1.3388		-2.0304		H		1		UNL1		0.1758
44		H		-7.8790		-0.5175		-2.8784		H		1		UNL1		0.1624
45		H		-5.9361		-1.3823		1.0438		H		1		UNL1		0.1537
46		H		-4.4869		-3.3440		1.6536		H		1		UNL1		0.1510
47		H		-0.6038		-2.6232		-0.2695		H		1		UNL1		0.3401
48		H		-1.1099		-0.2957		-2.0086		H		1		UNL1		0.1762
49		H		0.2912		-2.4905		-2.6438		H		1		UNL1		0.1587
50		H		0.7828		-0.9118		-3.2507		H		1		UNL1		0.1470
51		H		2.6799		-0.7878		-1.9234		H		1		UNL1		0.1110
52		H		2.5654		-2.5409		-2.0104		H		1		UNL1		0.1580
53		H		2.3061		-2.8566		1.5262		H		1		UNL1		0.1833
54		H		2.9141		-3.5646		0.0435		H		1		UNL1		0.1812
55		H		3.9458		-0.5583		-0.3555		H		1		UNL1		0.3530
56		H		6.7763		-1.6467		1.7941		H		1		UNL1		0.2003
57		H		8.9061		-0.3733		1.8607		H		1		UNL1		0.1670
58		H		5.2268		1.1992		-1.0410		H		1		UNL1		0.1504
59		H		0.7821		-0.9567		1.3711		H		1		UNL1		0.1550
60		H		2.0872		0.0933		0.8235		H		1		UNL1		0.1238
61		H		-0.4052		0.6871		0.1369		H		1		UNL1		0.1676
62		H		0.8677		0.8796		-1.0625		H		1		UNL1		0.1387
@<TRIPOS>BOND
1		50		19		1
2		42		9		1
3		44		9		1
4		49		19		1
5		19		20		1
6		19		18		1
7		9		43		1
8		9		8		1
9		52		20		1
10		48		18		1
11		51		20		1
12		20		21		1
13		18		17		1
14		18		35		1
15		32		31		1
16		41		7		1
17		62		35		1
18		58		33		1
19		8		7		ar
20		8		10		ar
21		7		4		ar
22		17		47		1
23		17		16		1
24		36		16		ar
25		36		12		ar
26		11		10		1
27		11		12		1
28		35		61		1
29		35		34		1
30		33		31		ar
31		33		26		ar
32		31		29		ar
33		55		25		1
34		16		15		ar
35		21		34		1
36		21		22		1
37		10		2		ar
38		12		13		ar
39		54		22		1
40		25		26		1
41		25		23		1
42		26		27		ar
43		4		5		1
44		4		3		ar
45		29		30		1
46		29		28		ar
47		34		60		1
48		34		59		1
49		22		23		1
50		22		53		1
51		15		14		ar
52		13		14		ar
53		13		45		1
54		5		6		3
55		23		24		2
56		2		3		ar
57		2		1		1
58		14		46		1
59		27		28		ar
60		27		56		1
61		38		1		1
62		28		57		1
63		3		40		1
64		1		39		1
65		1		37		1

