@<TRIPOS>MOLECULE
XYZ-2008-EJMC-1230-9K
 47 50 0 0 0
SMALL
MULLIKEN_CHARGES
****
Gaussian 16 #p B3LYP/6-31G* opt
@<TRIPOS>ATOM
1		C		1.0343		4.8766		-0.3282		C.3		1		UNL1		-0.4835
2		C		1.5187		3.4304		-0.2745		C.3		1		UNL1		-0.0892
3		N		0.4013		2.5327		-0.0113		N.3		1		UNL1		-0.6445
4		C		0.5051		1.1996		0.1610		C.ar		1		UNL1		0.7106
5		N		1.7351		0.6485		0.1360		N.ar		1		UNL1		-0.5673
6		C		1.7354		-0.6749		0.3250		C.ar		1		UNL1		0.7203
7		N		2.9152		-1.3797		0.3302		N.pl3		1		UNL1		-0.7783
8		C		4.2473		-0.9968		0.1652		C.ar		1		UNL1		0.3816
9		C		5.2138		-2.0196		0.2464		C.ar		1		UNL1		-0.2035
10		C		6.5618		-1.7395		0.0954		C.ar		1		UNL1		-0.1408
11		C		6.9868		-0.4205		-0.1425		C.ar		1		UNL1		0.1324
12		C		8.3774		-0.1218		-0.2989		C.1		1		UNL1		0.2276
13		N		9.5087		0.1220		-0.4258		N.1		1		UNL1		-0.4843
14		C		6.0236		0.5986		-0.2242		C.ar		1		UNL1		-0.1557
15		C		4.6703		0.3234		-0.0738		C.ar		1		UNL1		-0.1600
16		N		0.6549		-1.4545		0.5233		N.ar		1		UNL1		-0.5503
17		C		-0.4876		-0.7750		0.5154		C.ar		1		UNL1		0.6870
18		O		-1.5797		-1.5542		0.7084		O.3		1		UNL1		-0.5338
19		C		-2.8362		-0.9661		0.7356		C.ar		1		UNL1		0.3609
20		C		-3.3346		-0.5019		1.9726		C.ar		1		UNL1		-0.1401
21		C		-4.6123		-0.0088		2.0572		C.ar		1		UNL1		-0.2071
22		C		-5.4510		0.0410		0.9123		C.ar		1		UNL1		0.1543
23		C		-6.7762		0.5467		0.9843		C.ar		1		UNL1		-0.1964
24		C		-7.5819		0.5880		-0.1300		C.ar		1		UNL1		-0.1310
25		C		-7.0920		0.1208		-1.3721		C.ar		1		UNL1		-0.1337
26		C		-5.8127		-0.3774		-1.4810		C.ar		1		UNL1		-0.1948
27		C		-4.9561		-0.4329		-0.3495		C.ar		1		UNL1		0.1227
28		C		-3.6217		-0.9374		-0.3973		C.ar		1		UNL1		-0.1871
29		CL		-2.9564		-1.5316		-1.9049		Cl		1		UNL1		0.0125
30		N		-0.6546		0.5289		0.3504		N.ar		1		UNL1		-0.5448
31		H		1.8754		5.5479		-0.5255		H		1		UNL1		0.1666
32		H		0.2976		5.0198		-1.1276		H		1		UNL1		0.1584
33		H		0.5770		5.1768		0.6214		H		1		UNL1		0.1615
34		H		2.2689		3.3069		0.5151		H		1		UNL1		0.1685
35		H		2.0037		3.1538		-1.2200		H		1		UNL1		0.1631
36		H		-0.5430		2.8922		-0.0305		H		1		UNL1		0.3434
37		H		2.7502		-2.3672		0.4829		H		1		UNL1		0.3524
38		H		4.8966		-3.0433		0.4303		H		1		UNL1		0.1410
39		H		7.2935		-2.5381		0.1607		H		1		UNL1		0.1593
40		H		6.3439		1.6192		-0.4087		H		1		UNL1		0.1555
41		H		3.9337		1.1106		-0.1388		H		1		UNL1		0.1904
42		H		-2.6845		-0.5549		2.8396		H		1		UNL1		0.1490
43		H		-4.9992		0.3479		3.0080		H		1		UNL1		0.1410
44		H		-7.1425		0.9020		1.9444		H		1		UNL1		0.1353
45		H		-8.5936		0.9775		-0.0596		H		1		UNL1		0.1358
46		H		-7.7318		0.1547		-2.2495		H		1		UNL1		0.1372
47		H		-5.4457		-0.7337		-2.4367		H		1		UNL1		0.1578
@<TRIPOS>BOND
1		47		26		1
2		46		25		1
3		29		28		1
4		26		25		ar
5		26		27		ar
6		25		24		ar
7		35		2		1
8		32		1		1
9		31		1		1
10		13		12		3
11		40		14		1
12		28		27		ar
13		28		19		ar
14		27		22		ar
15		1		2		1
16		1		33		1
17		12		11		1
18		2		3		1
19		2		34		1
20		14		11		ar
21		14		15		ar
22		11		10		ar
23		41		15		1
24		24		45		1
25		24		23		ar
26		15		8		ar
27		36		3		1
28		3		4		1
29		10		39		1
30		10		9		ar
31		5		4		ar
32		5		6		ar
33		4		30		ar
34		8		9		ar
35		8		7		1
36		9		38		1
37		6		7		1
38		6		16		ar
39		7		37		1
40		30		17		ar
41		17		16		ar
42		17		18		1
43		18		19		1
44		19		20		ar
45		22		23		ar
46		22		21		ar
47		23		44		1
48		20		21		ar
49		20		42		1
50		21		43		1

