@<TRIPOS>MOLECULE
XYZ-2009-CB-561-8K
 41 44 0 0 0
SMALL
MULLIKEN_CHARGES
****
Gaussian 16 #p B3LYP/6-31G* opt
@<TRIPOS>ATOM
1		N		-9.3931		0.9150		0.6178		N.1		1		UNL1		-0.4785
2		C		-8.2729		0.6456		0.4530		C.1		1		UNL1		0.2312
3		C		-6.8944		0.3186		0.2512		C.ar		1		UNL1		0.1340
4		C		-5.8965		1.2886		0.4332		C.ar		1		UNL1		-0.1487
5		C		-4.5529		0.9832		0.2403		C.ar		1		UNL1		-0.1577
6		C		-4.1686		-0.3124		-0.1431		C.ar		1		UNL1		0.3234
7		N		-2.8710		-0.7561		-0.3718		N.pl3		1		UNL1		-0.7830
8		C		-1.6583		-0.1171		-0.2896		C.ar		1		UNL1		0.7244
9		N		-1.5953		1.1670		0.0748		N.ar		1		UNL1		-0.5519
10		C		-0.3410		1.6581		0.1072		C.ar		1		UNL1		0.6714
11		N		-0.1932		2.9595		0.4421		N.3		1		UNL1		-0.7694
12		N		0.7819		0.9735		-0.1822		N.ar		1		UNL1		-0.5241
13		C		0.5554		-0.2916		-0.5194		C.ar		1		UNL1		0.6854
14		O		1.6095		-1.0818		-0.8261		O.3		1		UNL1		-0.5305
15		C		2.8923		-0.5505		-0.7902		C.ar		1		UNL1		0.3588
16		C		3.4096		0.0309		-1.9682		C.ar		1		UNL1		-0.1404
17		C		4.7079		0.4740		-2.0016		C.ar		1		UNL1		-0.2067
18		C		5.5479		0.3540		-0.8630		C.ar		1		UNL1		0.1544
19		C		6.8942		0.8060		-0.8831		C.ar		1		UNL1		-0.1961
20		C		7.7011		0.6825		0.2243		C.ar		1		UNL1		-0.1308
21		C		7.1913		0.0966		1.4066		C.ar		1		UNL1		-0.1335
22		C		5.8912		-0.3541		1.4642		C.ar		1		UNL1		-0.1947
23		C		5.0328		-0.2405		0.3384		C.ar		1		UNL1		0.1226
24		C		3.6776		-0.6880		0.3347		C.ar		1		UNL1		-0.1859
25		CL		2.9861		-1.4227		1.7665		Cl		1		UNL1		0.0133
26		N		-0.6163		-0.9104		-0.6033		N.ar		1		UNL1		-0.5444
27		C		-5.1915		-1.2650		-0.3190		C.ar		1		UNL1		0.3165
28		F		-4.8190		-2.5147		-0.6903		F		1		UNL1		-0.2963
29		C		-6.5268		-0.9839		-0.1333		C.ar		1		UNL1		-0.2146
30		H		-6.1790		2.2933		0.7292		H		1		UNL1		0.1598
31		H		-3.7861		1.7308		0.3808		H		1		UNL1		0.1850
32		H		-2.7817		-1.7263		-0.6482		H		1		UNL1		0.3642
33		H		0.7381		3.3100		0.6066		H		1		UNL1		0.3562
34		H		-0.9876		3.4661		0.8004		H		1		UNL1		0.3504
35		H		2.7575		0.1071		-2.8320		H		1		UNL1		0.1503
36		H		5.1099		0.9211		-2.9067		H		1		UNL1		0.1422
37		H		7.2756		1.2536		-1.7975		H		1		UNL1		0.1361
38		H		8.7290		1.0327		0.1940		H		1		UNL1		0.1365
39		H		7.8323		0.0004		2.2785		H		1		UNL1		0.1379
40		H		5.5091		-0.8023		2.3741		H		1		UNL1		0.1581
41		H		-7.2653		-1.7626		-0.2848		H		1		UNL1		0.1750
@<TRIPOS>BOND
1		36		17		1
2		35		16		1
3		17		16		ar
4		17		18		ar
5		16		15		ar
6		37		19		1
7		19		18		ar
8		19		20		ar
9		18		23		ar
10		14		15		1
11		14		13		1
12		15		24		ar
13		28		27		1
14		32		7		1
15		26		13		ar
16		26		8		ar
17		13		12		ar
18		7		8		1
19		7		6		1
20		27		6		ar
21		27		29		ar
22		8		9		ar
23		41		29		1
24		12		10		ar
25		6		5		ar
26		29		3		ar
27		9		10		ar
28		10		11		1
29		38		20		1
30		20		21		ar
31		5		31		1
32		5		4		ar
33		3		4		ar
34		3		2		1
35		24		23		ar
36		24		25		1
37		23		22		ar
38		4		30		1
39		11		33		1
40		11		34		1
41		2		1		3
42		21		22		ar
43		21		39		1
44		22		40		1

