@<TRIPOS>MOLECULE
XYZ-2009-CB-561-8H
 48 51 0 0 0
SMALL
MULLIKEN_CHARGES
****
Gaussian 16 #p B3LYP/6-31G* opt
@<TRIPOS>ATOM
1		C		-3.3962		4.2927		0.9884		C.2		1		UNL1		-0.3417
2		C		-2.6840		3.3203		0.4199		C.2		1		UNL1		-0.0534
3		C		-2.0916		3.4136		-0.9654		C.3		1		UNL1		-0.1856
4		N		-0.6278		3.3520		-0.9748		N.3		1		UNL1		-0.6236
5		C		0.0769		2.2064		-0.8306		C.ar		1		UNL1		0.6995
6		N		1.4046		2.3209		-0.6491		N.ar		1		UNL1		-0.5744
7		C		2.0380		1.1485		-0.5046		C.ar		1		UNL1		0.7286
8		N		3.3967		1.2624		-0.3415		N.pl3		1		UNL1		-0.7832
9		C		4.3861		0.3022		-0.1531		C.ar		1		UNL1		0.3212
10		C		4.1985		-1.0882		-0.0761		C.ar		1		UNL1		-0.1630
11		C		5.2886		-1.9314		0.1161		C.ar		1		UNL1		-0.1503
12		C		6.5906		-1.4207		0.2369		C.ar		1		UNL1		0.1336
13		C		7.7034		-2.2987		0.4335		C.1		1		UNL1		0.2311
14		N		8.6080		-3.0136		0.5930		N.1		1		UNL1		-0.4798
15		C		6.7948		-0.0307		0.1627		C.ar		1		UNL1		-0.2150
16		C		5.7028		0.7862		-0.0278		C.ar		1		UNL1		0.3136
17		F		5.8807		2.1299		-0.1014		F		1		UNL1		-0.2998
18		N		1.4707		-0.0673		-0.4965		N.ar		1		UNL1		-0.5459
19		C		0.1534		-0.0244		-0.6858		C.ar		1		UNL1		0.6850
20		O		-0.4296		-1.2477		-0.6641		O.3		1		UNL1		-0.5351
21		C		-1.8090		-1.3546		-0.7840		C.ar		1		UNL1		0.3262
22		C		-2.3029		-1.8874		-1.9946		C.ar		1		UNL1		-0.1547
23		C		-3.6480		-2.1140		-2.1486		C.ar		1		UNL1		-0.2026
24		C		-4.5613		-1.8161		-1.1039		C.ar		1		UNL1		0.1535
25		C		-5.9562		-2.0411		-1.2498		C.ar		1		UNL1		-0.1962
26		C		-6.8327		-1.7493		-0.2307		C.ar		1		UNL1		-0.1302
27		C		-6.3465		-1.2159		0.9862		C.ar		1		UNL1		-0.1328
28		C		-5.0013		-0.9851		1.1650		C.ar		1		UNL1		-0.1874
29		C		-4.0694		-1.2772		0.1335		C.ar		1		UNL1		0.0883
30		C		-2.6653		-1.0650		0.2570		C.ar		1		UNL1		0.0027
31		BR		-1.9398		-0.3706		1.8760		Br		1		UNL1		-0.0988
32		N		-0.6046		1.0399		-0.8849		N.ar		1		UNL1		-0.5319
33		H		-3.8181		4.1861		1.9842		H		1		UNL1		0.1474
34		H		-3.5936		5.2338		0.4776		H		1		UNL1		0.1366
35		H		-2.5052		2.3813		0.9423		H		1		UNL1		0.1666
36		H		-2.4523		2.5897		-1.5874		H		1		UNL1		0.1928
37		H		-2.3817		4.3533		-1.4464		H		1		UNL1		0.1531
38		H		-0.1080		4.1942		-0.7675		H		1		UNL1		0.3390
39		H		3.7182		2.2220		-0.3623		H		1		UNL1		0.3581
40		H		3.1975		-1.4852		-0.1677		H		1		UNL1		0.2070
41		H		5.1294		-3.0029		0.1741		H		1		UNL1		0.1629
42		H		7.7832		0.4054		0.2514		H		1		UNL1		0.1727
43		H		-1.5909		-2.1127		-2.7818		H		1		UNL1		0.1538
44		H		-4.0298		-2.5253		-3.0790		H		1		UNL1		0.1437
45		H		-6.3181		-2.4509		-2.1896		H		1		UNL1		0.1370
46		H		-7.8970		-1.9265		-0.3568		H		1		UNL1		0.1372
47		H		-7.0420		-0.9853		1.7884		H		1		UNL1		0.1382
48		H		-4.6333		-0.5755		2.0986		H		1		UNL1		0.1558
@<TRIPOS>BOND
1		44		23		1
2		43		22		1
3		45		25		1
4		23		22		ar
5		23		24		ar
6		22		21		ar
7		36		3		1
8		37		3		1
9		25		24		ar
10		25		26		ar
11		24		29		ar
12		4		3		1
13		4		5		1
14		4		38		1
15		3		2		1
16		32		5		ar
17		32		19		ar
18		5		6		ar
19		21		20		1
20		21		30		ar
21		19		20		1
22		19		18		ar
23		6		7		ar
24		7		18		ar
25		7		8		1
26		39		8		1
27		46		26		1
28		8		9		1
29		26		27		ar
30		40		10		1
31		9		10		ar
32		9		16		ar
33		17		16		1
34		10		11		ar
35		16		15		ar
36		11		41		1
37		11		12		ar
38		29		30		ar
39		29		28		ar
40		15		12		ar
41		15		42		1
42		12		13		1
43		30		31		1
44		2		35		1
45		2		1		2
46		13		14		3
47		34		1		1
48		27		28		ar
49		27		47		1
50		1		33		1
51		28		48		1

