@<TRIPOS>MOLECULE
XYZ-2008-EJMC-1230-9R
 41 44 0 0 0
SMALL
MULLIKEN_CHARGES
****
Gaussian 16 #p B3LYP/6-31G* opt
@<TRIPOS>ATOM
1		N		8.1498		-3.2114		-0.2794		N.1		1		UNL1		-0.4797
2		C		7.0781		-2.7656		-0.1936		C.1		1		UNL1		0.2310
3		C		5.7586		-2.2204		-0.0876		C.ar		1		UNL1		0.1346
4		C		4.6489		-3.0695		0.0646		C.ar		1		UNL1		-0.1398
5		C		3.3748		-2.5348		0.1674		C.ar		1		UNL1		-0.2041
6		C		3.1709		-1.1426		0.1214		C.ar		1		UNL1		0.3772
7		N		1.8441		-0.7040		0.2359		N.pl3		1		UNL1		-0.7749
8		C		1.2844		0.5421		0.2262		C.ar		1		UNL1		0.7292
9		N		2.0485		1.6318		0.0880		N.ar		1		UNL1		-0.5323
10		C		1.3558		2.7738		0.0967		C.ar		1		UNL1		0.6695
11		N		2.1492		3.9171		-0.0441		N.2		1		UNL1		-0.4469
12		N		1.5306		5.0042		-0.0445		N.2		1		UNL1		0.4752
13		N		1.1260		6.0612		-0.0640		N.2		1		UNL1		-0.2009
14		N		0.0334		2.9133		0.2224		N.ar		1		UNL1		-0.5133
15		C		-0.6040		1.7452		0.3488		C.ar		1		UNL1		0.6892
16		O		-1.9394		1.8716		0.4763		O.3		1		UNL1		-0.5248
17		C		-2.7243		0.7307		0.6171		C.ar		1		UNL1		0.3516
18		C		-3.0359		0.2975		1.9234		C.ar		1		UNL1		-0.1438
19		C		-3.8862		-0.7643		2.1069		C.ar		1		UNL1		-0.2065
20		C		-4.4624		-1.4362		0.9967		C.ar		1		UNL1		0.1546
21		C		-5.3447		-2.5356		1.1716		C.ar		1		UNL1		-0.1958
22		C		-5.9005		-3.1781		0.0898		C.ar		1		UNL1		-0.1301
23		C		-5.5958		-2.7445		-1.2219		C.ar		1		UNL1		-0.1330
24		C		-4.7454		-1.6819		-1.4317		C.ar		1		UNL1		-0.1945
25		C		-4.1549		-0.9980		-0.3359		C.ar		1		UNL1		0.1219
26		C		-3.2671		0.1092		-0.4873		C.ar		1		UNL1		-0.1832
27		CL		-2.8519		0.6982		-2.0829		Cl		1		UNL1		0.0179
28		N		-0.0606		0.5379		0.3666		N.ar		1		UNL1		-0.5380
29		C		4.2776		-0.2896		-0.0311		C.ar		1		UNL1		-0.1588
30		C		5.5532		-0.8320		-0.1336		C.ar		1		UNL1		-0.1535
31		H		4.7926		-4.1443		0.1013		H		1		UNL1		0.1619
32		H		2.5226		-3.2001		0.2845		H		1		UNL1		0.1419
33		H		1.1441		-1.4288		0.3389		H		1		UNL1		0.3552
34		H		-2.5952		0.8285		2.7606		H		1		UNL1		0.1525
35		H		-4.1311		-1.1010		3.1104		H		1		UNL1		0.1452
36		H		-5.5729		-2.8595		2.1840		H		1		UNL1		0.1384
37		H		-6.5738		-4.0174		0.2388		H		1		UNL1		0.1393
38		H		-6.0379		-3.2548		-2.0730		H		1		UNL1		0.1407
39		H		-4.5182		-1.3561		-2.4402		H		1		UNL1		0.1601
40		H		4.1289		0.7799		-0.0684		H		1		UNL1		0.2024
41		H		6.4054		-0.1704		-0.2514		H		1		UNL1		0.1644
@<TRIPOS>BOND
1		39		24		1
2		27		26		1
3		38		23		1
4		24		23		ar
5		24		25		ar
6		23		22		ar
7		26		25		ar
8		26		17		ar
9		25		20		ar
10		1		2		3
11		41		30		1
12		2		3		1
13		30		3		ar
14		30		29		ar
15		3		4		ar
16		40		29		1
17		13		12		2
18		12		11		2
19		11		10		1
20		29		6		ar
21		4		31		1
22		4		5		ar
23		9		10		ar
24		9		8		ar
25		22		37		1
26		22		21		ar
27		10		14		ar
28		6		5		ar
29		6		7		1
30		5		32		1
31		14		15		ar
32		8		7		1
33		8		28		ar
34		7		33		1
35		15		28		ar
36		15		16		1
37		16		17		1
38		17		18		ar
39		20		21		ar
40		20		19		ar
41		21		36		1
42		18		19		ar
43		18		34		1
44		19		35		1

