@<TRIPOS>MOLECULE
XYZ-2009-CB-561-8L
 47 50 0 0 0
SMALL
MULLIKEN_CHARGES
****
Gaussian 16 #p B3LYP/6-31G* opt
@<TRIPOS>ATOM
1		C		-1.7789		4.2460		0.4942		C.3		1		UNL1		-0.4430
2		C		-1.1946		3.5720		-0.7513		C.3		1		UNL1		-0.1299
3		N		-0.1110		2.6432		-0.4575		N.3		1		UNL1		-0.6270
4		C		-0.2601		1.3508		-0.0967		C.ar		1		UNL1		0.7058
5		N		-1.5031		0.8285		-0.0586		N.ar		1		UNL1		-0.5690
6		C		-1.5330		-0.4628		0.2848		C.ar		1		UNL1		0.7229
7		N		-2.7311		-1.1324		0.3625		N.pl3		1		UNL1		-0.7851
8		C		-4.0398		-0.7213		0.1433		C.ar		1		UNL1		0.3237
9		C		-4.4609		0.5690		-0.2187		C.ar		1		UNL1		-0.1656
10		C		-5.8126		0.8411		-0.4041		C.ar		1		UNL1		-0.1518
11		C		-6.7836		-0.1581		-0.2354		C.ar		1		UNL1		0.1338
12		C		-8.1709		0.1348		-0.4286		C.1		1		UNL1		0.2309
13		N		-9.2984		0.3769		-0.5862		N.1		1		UNL1		-0.4790
14		C		-6.3795		-1.4561		0.1277		C.ar		1		UNL1		-0.2149
15		C		-5.0367		-1.7038		0.3061		C.ar		1		UNL1		0.3173
16		F		-4.6300		-2.9488		0.6571		F		1		UNL1		-0.2963
17		N		-0.4748		-1.2375		0.5857		N.ar		1		UNL1		-0.5474
18		C		0.6831		-0.5882		0.5111		C.ar		1		UNL1		0.6874
19		O		1.7544		-1.3591		0.8146		O.3		1		UNL1		-0.5324
20		C		3.0240		-0.7984		0.7882		C.ar		1		UNL1		0.3599
21		C		3.5246		-0.2184		1.9742		C.ar		1		UNL1		-0.1412
22		C		4.8122		0.2544		2.0172		C.ar		1		UNL1		-0.2071
23		C		5.6581		0.1674		0.8800		C.ar		1		UNL1		0.1544
24		C		6.9933		0.6504		0.9094		C.ar		1		UNL1		-0.1963
25		C		7.8060		0.5587		-0.1968		C.ar		1		UNL1		-0.1309
26		C		7.3134		-0.0252		-1.3874		C.ar		1		UNL1		-0.1336
27		C		6.0245		-0.5056		-1.4540		C.ar		1		UNL1		-0.1946
28		C		5.1604		-0.4253		-0.3296		C.ar		1		UNL1		0.1225
29		C		3.8161		-0.9048		-0.3354		C.ar		1		UNL1		-0.1858
30		CL		3.1473		-1.6403		-1.7773		Cl		1		UNL1		0.0137
31		N		0.8800		0.6823		0.1902		N.ar		1		UNL1		-0.5432
32		H		-1.0114		4.8120		1.0337		H		1		UNL1		0.1493
33		H		-2.5781		4.9408		0.2111		H		1		UNL1		0.1508
34		H		-2.1969		3.4983		1.1753		H		1		UNL1		0.1699
35		H		-1.9715		3.0205		-1.2870		H		1		UNL1		0.1807
36		H		-0.7958		4.3235		-1.4411		H		1		UNL1		0.1539
37		H		0.8406		2.9817		-0.4198		H		1		UNL1		0.3437
38		H		-2.6150		-2.1037		0.6247		H		1		UNL1		0.3638
39		H		-3.7152		1.3393		-0.3483		H		1		UNL1		0.1988
40		H		-6.1230		1.8424		-0.6837		H		1		UNL1		0.1586
41		H		-7.0962		-2.2569		0.2684		H		1		UNL1		0.1746
42		H		2.8685		-0.1681		2.8369		H		1		UNL1		0.1492
43		H		5.2012		0.6998		2.9288		H		1		UNL1		0.1413
44		H		7.3616		1.0962		1.8302		H		1		UNL1		0.1355
45		H		8.8254		0.9325		-0.1593		H		1		UNL1		0.1361
46		H		7.9589		-0.0961		-2.2584		H		1		UNL1		0.1376
47		H		5.6555		-0.9520		-2.3702		H		1		UNL1		0.1582
@<TRIPOS>BOND
1		47		27		1
2		46		26		1
3		30		29		1
4		27		26		ar
5		27		28		ar
6		36		2		1
7		26		25		ar
8		35		2		1
9		2		3		1
10		2		1		1
11		40		10		1
12		13		12		3
13		3		37		1
14		3		4		1
15		12		11		1
16		10		11		ar
17		10		9		ar
18		39		9		1
19		29		28		ar
20		29		20		ar
21		28		23		ar
22		11		14		ar
23		9		8		ar
24		25		45		1
25		25		24		ar
26		4		5		ar
27		4		31		ar
28		5		6		ar
29		14		41		1
30		14		15		ar
31		8		15		ar
32		8		7		1
33		31		18		ar
34		33		1		1
35		6		7		1
36		6		17		ar
37		15		16		1
38		7		38		1
39		1		32		1
40		1		34		1
41		18		17		ar
42		18		19		1
43		20		19		1
44		20		21		ar
45		23		24		ar
46		23		22		ar
47		24		44		1
48		21		22		ar
49		21		42		1
50		22		43		1

