@<TRIPOS>MOLECULE
XYZ-2009-CB-561-8F
 41 44 0 0 0
SMALL
MULLIKEN_CHARGES
****
Gaussian 16 #p B3LYP/6-31G* opt
@<TRIPOS>ATOM
1		N		8.0537		-3.3389		0.2693		N.1		1		UNL1		-0.4794
2		C		7.2166		-2.5315		0.2241		C.1		1		UNL1		0.2315
3		C		6.1867		-1.5393		0.1692		C.ar		1		UNL1		0.1339
4		C		4.8444		-1.8884		0.3858		C.ar		1		UNL1		-0.1502
5		C		3.8340		-0.9329		0.3357		C.ar		1		UNL1		-0.1630
6		C		4.1456		0.4101		0.0646		C.ar		1		UNL1		0.3208
7		N		3.2455		1.4688		-0.0171		N.pl3		1		UNL1		-0.7823
8		C		1.8827		1.5156		0.1372		C.ar		1		UNL1		0.7265
9		N		1.3559		2.7397		-0.0313		N.ar		1		UNL1		-0.5601
10		C		0.0255		2.7828		0.1270		C.ar		1		UNL1		0.6683
11		N		-0.5829		3.9837		0.0021		N.3		1		UNL1		-0.7707
12		N		-0.7690		1.7285		0.4211		N.ar		1		UNL1		-0.5210
13		C		-0.1044		0.5918		0.5459		C.ar		1		UNL1		0.6904
14		O		-0.7867		-0.5394		0.8398		O.3		1		UNL1		-0.5343
15		C		-2.1714		-0.4909		0.9487		C.ar		1		UNL1		0.3283
16		C		-2.7207		-0.4521		2.2482		C.ar		1		UNL1		-0.1494
17		C		-4.0817		-0.5031		2.4187		C.ar		1		UNL1		-0.2040
18		C		-4.9528		-0.5947		1.3016		C.ar		1		UNL1		0.1544
19		C		-6.3630		-0.6478		1.4635		C.ar		1		UNL1		-0.1970
20		C		-7.1997		-0.7390		0.3756		C.ar		1		UNL1		-0.1304
21		C		-6.6561		-0.7819		-0.9298		C.ar		1		UNL1		-0.1336
22		C		-5.2943		-0.7334		-1.1263		C.ar		1		UNL1		-0.1876
23		C		-4.4026		-0.6390		-0.0247		C.ar		1		UNL1		0.0868
24		C		-2.9841		-0.5873		-0.1596		C.ar		1		UNL1		-0.0007
25		BR		-2.1692		-0.6479		-1.8807		Br		1		UNL1		-0.1044
26		N		1.2092		0.3952		0.4275		N.ar		1		UNL1		-0.5434
27		C		5.5000		0.7312		-0.1492		C.ar		1		UNL1		0.3137
28		F		5.7970		2.0294		-0.4118		F		1		UNL1		-0.2997
29		C		6.5146		-0.1987		-0.1039		C.ar		1		UNL1		-0.2148
30		H		4.5901		-2.9219		0.5957		H		1		UNL1		0.1635
31		H		2.8018		-1.2055		0.5027		H		1		UNL1		0.2080
32		H		3.6512		2.3712		-0.2304		H		1		UNL1		0.3584
33		H		-1.5905		4.0127		-0.0248		H		1		UNL1		0.3549
34		H		-0.0496		4.7646		-0.3476		H		1		UNL1		0.3513
35		H		-2.0408		-0.3881		3.0913		H		1		UNL1		0.1520
36		H		-4.5092		-0.4746		3.4172		H		1		UNL1		0.1428
37		H		-6.7690		-0.6148		2.4716		H		1		UNL1		0.1364
38		H		-8.2763		-0.7787		0.5151		H		1		UNL1		0.1367
39		H		-7.3201		-0.8542		-1.7867		H		1		UNL1		0.1379
40		H		-4.8836		-0.7666		-2.1290		H		1		UNL1		0.1568
41		H		7.5379		0.1134		-0.2775		H		1		UNL1		0.1730
@<TRIPOS>BOND
1		40		22		1
2		25		24		1
3		39		21		1
4		22		21		ar
5		22		23		ar
6		21		20		ar
7		28		27		1
8		34		11		1
9		41		29		1
10		32		7		1
11		24		23		ar
12		24		15		ar
13		27		29		ar
14		27		6		ar
15		29		3		ar
16		9		10		ar
17		9		8		ar
18		33		11		1
19		23		18		ar
20		7		6		1
21		7		8		1
22		11		10		1
23		6		5		ar
24		10		12		ar
25		8		26		ar
26		3		2		1
27		3		4		ar
28		2		1		3
29		5		4		ar
30		5		31		1
31		20		38		1
32		20		19		ar
33		4		30		1
34		12		13		ar
35		26		13		ar
36		13		14		1
37		14		15		1
38		15		16		ar
39		18		19		ar
40		18		17		ar
41		19		37		1
42		16		17		ar
43		16		35		1
44		17		36		1

