@<TRIPOS>MOLECULE
XYZ-2009-APC-145-7E
 48 51 0 0 0
SMALL
MULLIKEN_CHARGES
****
Gaussian 16 #p B3LYP/6-31G* opt
@<TRIPOS>ATOM
1		C		6.1156		5.7867		0.4311		C.2		1		UNL1		-0.3377
2		C		5.0675		4.9954		0.6594		C.2		1		UNL1		-0.0535
3		C		4.2100		4.3950		-0.4235		C.3		1		UNL1		-0.1805
4		N		4.2101		2.9369		-0.3611		N.3		1		UNL1		-0.6346
5		C		3.1183		2.1506		-0.2361		C.ar		1		UNL1		0.7088
6		N		3.3543		0.8163		-0.1763		N.ar		1		UNL1		-0.5697
7		C		2.2539		0.0788		-0.0606		C.ar		1		UNL1		0.7234
8		N		2.3236		-1.2914		0.0073		N.pl3		1		UNL1		-0.7788
9		C		3.3973		-2.1846		-0.0218		C.ar		1		UNL1		0.3814
10		C		4.7462		-1.7997		-0.1227		C.ar		1		UNL1		-0.1545
11		C		5.7411		-2.7692		-0.1413		C.ar		1		UNL1		-0.1531
12		C		5.4265		-4.1356		-0.0608		C.ar		1		UNL1		0.1324
13		C		6.4617		-5.1235		-0.0806		C.1		1		UNL1		0.2284
14		N		7.3037		-5.9272		-0.0964		N.1		1		UNL1		-0.4828
15		C		4.0772		-4.5179		0.0398		C.ar		1		UNL1		-0.1403
16		C		3.0812		-3.5555		0.0587		C.ar		1		UNL1		-0.2047
17		N		0.9842		0.5447		0.0011		N.ar		1		UNL1		-0.5590
18		C		0.9062		1.8679		-0.0640		C.ar		1		UNL1		0.6747
19		O		-0.3097		2.4565		-0.0220		O.3		1		UNL1		-0.5359
20		C		-1.4550		1.6870		0.1821		C.ar		1		UNL1		0.3579
21		C		-1.6870		1.0823		1.4400		C.ar		1		UNL1		-0.1353
22		C		-2.8683		0.4164		1.6615		C.ar		1		UNL1		-0.2067
23		C		-3.8628		0.3302		0.6486		C.ar		1		UNL1		0.1455
24		C		-5.0901		-0.3527		0.8577		C.ar		1		UNL1		-0.2212
25		C		-6.0231		-0.4065		-0.1495		C.ar		1		UNL1		0.0788
26		BR		-7.6756		-1.3280		0.1328		Br		1		UNL1		-0.1288
27		C		-5.7966		0.2061		-1.4035		C.ar		1		UNL1		-0.1526
28		C		-4.6137		0.8737		-1.6242		C.ar		1		UNL1		-0.1905
29		C		-3.6166		0.9564		-0.6160		C.ar		1		UNL1		0.1356
30		C		-2.3877		1.6369		-0.8227		C.ar		1		UNL1		-0.2364
31		N		1.9084		2.7340		-0.1818		N.ar		1		UNL1		-0.5359
32		H		6.4230		6.0498		-0.5794		H		1		UNL1		0.1436
33		H		6.7002		6.2116		1.2421		H		1		UNL1		0.1516
34		H		4.7822		4.7431		1.6805		H		1		UNL1		0.1424
35		H		3.1670		4.7057		-0.3187		H		1		UNL1		0.2117
36		H		4.5603		4.7258		-1.4104		H		1		UNL1		0.1561
37		H		5.0955		2.4497		-0.3815		H		1		UNL1		0.3393
38		H		1.4022		-1.7042		0.0852		H		1		UNL1		0.3516
39		H		4.9935		-0.7503		-0.1853		H		1		UNL1		0.1799
40		H		6.7806		-2.4663		-0.2192		H		1		UNL1		0.1578
41		H		3.8182		-5.5698		0.1024		H		1		UNL1		0.1602
42		H		2.0409		-3.8627		0.1363		H		1		UNL1		0.1407
43		H		-0.9293		1.1556		2.2125		H		1		UNL1		0.1466
44		H		-3.0577		-0.0508		2.6244		H		1		UNL1		0.1421
45		H		-5.2833		-0.8281		1.8140		H		1		UNL1		0.1541
46		H		-6.5551		0.1443		-2.1759		H		1		UNL1		0.1562
47		H		-4.4319		1.3480		-2.5852		H		1		UNL1		0.1441
48		H		-2.1834		2.1240		-1.7712		H		1		UNL1		0.1474
@<TRIPOS>BOND
1		47		28		1
2		46		27		1
3		48		30		1
4		28		27		ar
5		28		29		ar
6		36		3		1
7		27		25		ar
8		30		29		ar
9		30		20		ar
10		29		23		ar
11		32		1		1
12		3		4		1
13		3		35		1
14		3		2		1
15		37		4		1
16		4		5		1
17		5		31		ar
18		5		6		ar
19		40		11		1
20		39		10		1
21		31		18		ar
22		6		7		ar
23		25		26		1
24		25		24		ar
25		11		10		ar
26		11		12		ar
27		10		9		ar
28		14		13		3
29		13		12		1
30		18		19		1
31		18		17		ar
32		12		15		ar
33		7		17		ar
34		7		8		1
35		19		20		1
36		9		8		1
37		9		16		ar
38		8		38		1
39		15		16		ar
40		15		41		1
41		16		42		1
42		20		21		ar
43		1		2		2
44		1		33		1
45		23		24		ar
46		23		22		ar
47		2		34		1
48		24		45		1
49		21		22		ar
50		21		43		1
51		22		44		1

