@<TRIPOS>MOLECULE
XYZ-2008-EJMC-1230-9P
 41 44 0 0 0
SMALL
MULLIKEN_CHARGES
****
Gaussian 16 #p B3LYP/6-31G* opt
@<TRIPOS>ATOM
1		N		-8.3164		-2.5814		-0.2968		N.1		1		UNL1		-0.4831
2		C		-7.2298		-2.1729		-0.2110		C.1		1		UNL1		0.2283
3		C		-5.8937		-1.6711		-0.1053		C.ar		1		UNL1		0.1325
4		C		-4.8074		-2.5549		0.0196		C.ar		1		UNL1		-0.1402
5		C		-3.5173		-2.0612		0.1216		C.ar		1		UNL1		-0.2045
6		C		-3.2691		-0.6743		0.1024		C.ar		1		UNL1		0.3818
7		N		-1.9349		-0.2754		0.2150		N.pl3		1		UNL1		-0.7787
8		C		-1.3321		0.9580		0.2131		C.ar		1		UNL1		0.7225
9		N		-2.0513		2.0720		0.0799		N.ar		1		UNL1		-0.5505
10		C		-1.3108		3.2017		0.0967		C.ar		1		UNL1		0.6706
11		N		-1.9772		4.3730		-0.0081		N.3		1		UNL1		-0.7700
12		N		0.0254		3.2715		0.2239		N.ar		1		UNL1		-0.5176
13		C		0.6009		2.0802		0.3432		C.ar		1		UNL1		0.6847
14		O		1.9476		2.1388		0.4693		O.3		1		UNL1		-0.5311
15		C		2.6694		0.9617		0.6142		C.ar		1		UNL1		0.3583
16		C		2.9074		0.4791		1.9196		C.ar		1		UNL1		-0.1420
17		C		3.7011		-0.6242		2.1096		C.ar		1		UNL1		-0.2071
18		C		4.2942		-1.2933		1.0064		C.ar		1		UNL1		0.1540
19		C		5.1189		-2.4354		1.1872		C.ar		1		UNL1		-0.1963
20		C		5.6912		-3.0750		0.1121		C.ar		1		UNL1		-0.1308
21		C		5.4613		-2.5948		-1.1985		C.ar		1		UNL1		-0.1335
22		C		4.6682		-1.4897		-1.4136		C.ar		1		UNL1		-0.1948
23		C		4.0626		-0.8075		-0.3249		C.ar		1		UNL1		0.1224
24		C		3.2312		0.3419		-0.4819		C.ar		1		UNL1		-0.1862
25		CL		2.9091		0.9874		-2.0780		Cl		1		UNL1		0.0134
26		N		0.0105		0.8917		0.3545		N.ar		1		UNL1		-0.5547
27		C		-4.3540		0.2119		-0.0222		C.ar		1		UNL1		-0.1542
28		C		-5.6460		-0.2888		-0.1243		C.ar		1		UNL1		-0.1529
29		H		-4.9828		-3.6257		0.0355		H		1		UNL1		0.1598
30		H		-2.6845		-2.7540		0.2171		H		1		UNL1		0.1409
31		H		-1.2538		-1.0188		0.3094		H		1		UNL1		0.3523
32		H		-1.4436		5.2209		-0.1232		H		1		UNL1		0.3564
33		H		-2.9586		4.3621		-0.2371		H		1		UNL1		0.3503
34		H		2.4544		1.0072		2.7521		H		1		UNL1		0.1503
35		H		3.8876		-0.9975		3.1129		H		1		UNL1		0.1422
36		H		5.2895		-2.7950		2.1990		H		1		UNL1		0.1361
37		H		6.3198		-3.9476		0.2658		H		1		UNL1		0.1367
38		H		5.9157		-3.1029		-2.0446		H		1		UNL1		0.1381
39		H		4.4979		-1.1284		-2.4212		H		1		UNL1		0.1583
40		H		-4.1690		1.2759		-0.0379		H		1		UNL1		0.1805
41		H		-6.4795		0.3998		-0.2199		H		1		UNL1		0.1576
@<TRIPOS>BOND
1		39		22		1
2		25		24		1
3		38		21		1
4		22		21		ar
5		22		23		ar
6		21		20		ar
7		24		23		ar
8		24		15		ar
9		23		18		ar
10		1		2		3
11		33		11		1
12		41		28		1
13		2		3		1
14		28		3		ar
15		28		27		ar
16		32		11		1
17		3		4		ar
18		40		27		1
19		27		6		ar
20		11		10		1
21		4		29		1
22		4		5		ar
23		9		10		ar
24		9		8		ar
25		10		12		ar
26		6		5		ar
27		6		7		1
28		20		37		1
29		20		19		ar
30		5		30		1
31		8		7		1
32		8		26		ar
33		7		31		1
34		12		13		ar
35		13		26		ar
36		13		14		1
37		14		15		1
38		15		16		ar
39		18		19		ar
40		18		17		ar
41		19		36		1
42		16		17		ar
43		16		34		1
44		17		35		1

