@<TRIPOS>MOLECULE
XYZ-2008-EJMC-1230-9O
 44 47 0 0 0
SMALL
MULLIKEN_CHARGES
****
Gaussian 16 #p B3LYP/6-31G* opt
@<TRIPOS>ATOM
1		C		1.4564		5.4123		0.0601		C.3		1		UNL1		-0.2914
2		N		2.0521		4.0898		-0.0210		N.3		1		UNL1		-0.6246
3		C		1.3418		2.9472		-0.1240		C.ar		1		UNL1		0.7000
4		N		2.0537		1.7928		-0.1013		N.ar		1		UNL1		-0.5677
5		C		1.3073		0.6993		-0.2207		C.ar		1		UNL1		0.7248
6		N		1.8752		-0.5521		-0.2128		N.pl3		1		UNL1		-0.7795
7		C		3.1969		-0.9871		-0.0976		C.ar		1		UNL1		0.3823
8		C		4.3056		-0.1302		0.0249		C.ar		1		UNL1		-0.1545
9		C		5.5834		-0.6652		0.1306		C.ar		1		UNL1		-0.1531
10		C		5.7939		-2.0538		0.1176		C.ar		1		UNL1		0.1321
11		C		7.1157		-2.5910		0.2269		C.1		1		UNL1		0.2278
12		N		8.1910		-3.0282		0.3155		N.1		1		UNL1		-0.4838
13		C		4.6840		-2.9083		-0.0048		C.ar		1		UNL1		-0.1404
14		C		3.4079		-2.3804		-0.1106		C.ar		1		UNL1		-0.2045
15		N		-0.0392		0.6645		-0.3583		N.ar		1		UNL1		-0.5572
16		C		-0.5974		1.8672		-0.3580		C.ar		1		UNL1		0.6845
17		O		-1.9430		1.9599		-0.4856		O.3		1		UNL1		-0.5320
18		C		-2.6942		0.8009		-0.6229		C.ar		1		UNL1		0.3595
19		C		-2.9308		0.3053		-1.9238		C.ar		1		UNL1		-0.1414
20		C		-3.7521		-0.7787		-2.1071		C.ar		1		UNL1		-0.2072
21		C		-4.3757		-1.4150		-1.0013		C.ar		1		UNL1		0.1540
22		C		-5.2295		-2.5366		-1.1750		C.ar		1		UNL1		-0.1964
23		C		-5.8312		-3.1445		-0.0975		C.ar		1		UNL1		-0.1309
24		C		-5.6028		-2.6514		1.2085		C.ar		1		UNL1		-0.1336
25		C		-4.7821		-1.5653		1.4167		C.ar		1		UNL1		-0.1947
26		C		-4.1458		-0.9161		0.3254		C.ar		1		UNL1		0.1224
27		C		-3.2850		0.2125		0.4753		C.ar		1		UNL1		-0.1868
28		CL		-2.9629		0.8721		2.0657		Cl		1		UNL1		0.0131
29		N		0.0068		3.0457		-0.2475		N.ar		1		UNL1		-0.5318
30		H		0.9958		5.5963		1.0388		H		1		UNL1		0.1719
31		H		2.2387		6.1555		-0.1114		H		1		UNL1		0.1566
32		H		0.6838		5.5197		-0.7040		H		1		UNL1		0.1947
33		H		3.0409		3.9729		0.1439		H		1		UNL1		0.3407
34		H		1.1728		-1.2762		-0.3000		H		1		UNL1		0.3517
35		H		4.1490		0.9383		0.0360		H		1		UNL1		0.1792
36		H		6.4352		0.0010		0.2248		H		1		UNL1		0.1568
37		H		4.8303		-3.9835		-0.0160		H		1		UNL1		0.1593
38		H		2.5568		-3.0508		-0.2042		H		1		UNL1		0.1404
39		H		-2.4539		0.8081		-2.7587		H		1		UNL1		0.1494
40		H		-3.9373		-1.1617		-3.1070		H		1		UNL1		0.1417
41		H		-5.3985		-2.9064		-2.1835		H		1		UNL1		0.1358
42		H		-6.4817		-4.0018		-0.2459		H		1		UNL1		0.1364
43		H		-6.0803		-3.1343		2.0566		H		1		UNL1		0.1378
44		H		-4.6130		-1.1940		2.4209		H		1		UNL1		0.1582
@<TRIPOS>BOND
1		40		20		1
2		39		19		1
3		41		22		1
4		20		19		ar
5		20		21		ar
6		19		18		ar
7		22		21		ar
8		22		23		ar
9		21		26		ar
10		32		1		1
11		18		17		1
12		18		27		ar
13		17		16		1
14		15		16		ar
15		15		5		ar
16		16		29		ar
17		34		6		1
18		29		3		ar
19		42		23		1
20		5		6		1
21		5		4		ar
22		6		7		1
23		38		14		1
24		3		4		ar
25		3		2		1
26		31		1		1
27		14		7		ar
28		14		13		ar
29		7		8		ar
30		23		24		ar
31		2		1		1
32		2		33		1
33		37		13		1
34		13		10		ar
35		8		35		1
36		8		9		ar
37		1		30		1
38		10		9		ar
39		10		11		1
40		9		36		1
41		11		12		3
42		26		27		ar
43		26		25		ar
44		27		28		1
45		24		25		ar
46		24		43		1
47		25		44		1

