@<TRIPOS>MOLECULE
XYZ-2009-CB-561-8C
 47 50 0 0 0
SMALL
MULLIKEN_CHARGES
****
Gaussian 16 #p B3LYP/6-31G* opt
@<TRIPOS>ATOM
1		C		0.1784		5.4903		0.7208		C.3		1		UNL1		-0.4411
2		C		-0.1569		4.8200		-0.6151		C.3		1		UNL1		-0.1256
3		N		-0.8661		3.5551		-0.4688		N.3		1		UNL1		-0.6283
4		C		-0.2773		2.3528		-0.2904		C.ar		1		UNL1		0.7015
5		N		1.0615		2.2745		-0.3314		N.ar		1		UNL1		-0.5774
6		C		1.5391		1.0286		-0.1707		C.ar		1		UNL1		0.7257
7		N		2.9097		0.9497		-0.2214		N.pl3		1		UNL1		-0.7823
8		C		3.7740		-0.1337		-0.0993		C.ar		1		UNL1		0.3213
9		C		3.4096		-1.4730		0.1199		C.ar		1		UNL1		-0.1635
10		C		4.3888		-2.4563		0.2218		C.ar		1		UNL1		-0.1504
11		C		5.7518		-2.1398		0.1096		C.ar		1		UNL1		0.1336
12		C		6.7493		-3.1604		0.2163		C.1		1		UNL1		0.2311
13		N		7.5599		-3.9911		0.3033		N.1		1		UNL1		-0.4799
14		C		6.1328		-0.8033		-0.1099		C.ar		1		UNL1		-0.2151
15		C		5.1483		0.1544		-0.2077		C.ar		1		UNL1		0.3130
16		F		5.4971		1.4494		-0.4192		F		1		UNL1		-0.3003
17		N		0.8196		-0.0804		0.0290		N.ar		1		UNL1		-0.5465
18		C		-0.4992		0.1478		0.0546		C.ar		1		UNL1		0.6774
19		O		-1.2227		-0.9745		0.2480		O.3		1		UNL1		-0.5375
20		C		-2.6136		-0.8986		0.3663		C.ar		1		UNL1		0.3554
21		C		-3.1909		-0.3430		1.5315		C.ar		1		UNL1		-0.1353
22		C		-4.5566		-0.3702		1.6829		C.ar		1		UNL1		-0.2100
23		C		-5.3965		-0.9503		0.6928		C.ar		1		UNL1		0.1471
24		C		-6.8097		-0.9923		0.8260		C.ar		1		UNL1		-0.1940
25		C		-7.5939		-1.5655		-0.1500		C.ar		1		UNL1		-0.1346
26		C		-6.9975		-2.1253		-1.3062		C.ar		1		UNL1		-0.1361
27		C		-5.6299		-2.1021		-1.4653		C.ar		1		UNL1		-0.1892
28		C		-4.7933		-1.5170		-0.4775		C.ar		1		UNL1		0.1274
29		C		-3.3797		-1.4760		-0.6136		C.ar		1		UNL1		-0.2349
30		N		-1.1189		1.3055		-0.0935		N.ar		1		UNL1		-0.5413
31		H		-0.7284		5.6970		1.3005		H		1		UNL1		0.1463
32		H		0.8306		4.8456		1.3180		H		1		UNL1		0.1680
33		H		0.6967		6.4408		0.5496		H		1		UNL1		0.1501
34		H		-0.7851		5.4762		-1.2274		H		1		UNL1		0.1507
35		H		0.7583		4.6203		-1.1772		H		1		UNL1		0.1822
36		H		-1.8714		3.5527		-0.3643		H		1		UNL1		0.3414
37		H		3.3523		1.8463		-0.3773		H		1		UNL1		0.3565
38		H		2.3610		-1.7197		0.2066		H		1		UNL1		0.2075
39		H		4.0936		-3.4864		0.3911		H		1		UNL1		0.1629
40		H		7.1737		-0.5157		-0.2026		H		1		UNL1		0.1725
41		H		-2.5474		0.0932		2.2879		H		1		UNL1		0.1419
42		H		-5.0127		0.0526		2.5747		H		1		UNL1		0.1360
43		H		-7.2638		-0.5628		1.7160		H		1		UNL1		0.1312
44		H		-8.6741		-1.5914		-0.0361		H		1		UNL1		0.1321
45		H		-7.6258		-2.5756		-2.0699		H		1		UNL1		0.1330
46		H		-5.1708		-2.5323		-2.3522		H		1		UNL1		0.1337
47		H		-2.9008		-1.9055		-1.4885		H		1		UNL1		0.1436
@<TRIPOS>BOND
1		46		27		1
2		45		26		1
3		47		29		1
4		27		26		ar
5		27		28		ar
6		26		25		ar
7		34		2		1
8		35		2		1
9		2		3		1
10		2		1		1
11		29		28		ar
12		29		20		ar
13		28		23		ar
14		3		36		1
15		3		4		1
16		16		15		1
17		37		7		1
18		5		4		ar
19		5		6		ar
20		4		30		ar
21		7		6		1
22		7		8		1
23		15		14		ar
24		15		8		ar
25		40		14		1
26		6		17		ar
27		25		44		1
28		25		24		ar
29		14		11		ar
30		8		9		ar
31		30		18		ar
32		17		18		ar
33		18		19		1
34		11		12		1
35		11		10		ar
36		9		38		1
37		9		10		ar
38		12		13		3
39		10		39		1
40		19		20		1
41		20		21		ar
42		33		1		1
43		23		24		ar
44		23		22		ar
45		1		31		1
46		1		32		1
47		24		43		1
48		21		22		ar
49		21		41		1
50		22		42		1

