@<TRIPOS>MOLECULE
XYZ-2008-EJMC-1230-9M
 44 47 0 0 0
SMALL
MULLIKEN_CHARGES
****
Gaussian 16 #p B3LYP/6-31G* opt
@<TRIPOS>ATOM
1		C		2.6591		3.5284		0.8440		C.3		1		UNL1		-0.2930
2		N		1.6087		2.6406		0.3814		N.3		1		UNL1		-0.6231
3		C		1.8129		1.3832		-0.0607		C.ar		1		UNL1		0.7002
4		N		3.0785		0.9225		-0.1009		N.ar		1		UNL1		-0.5639
5		C		3.1810		-0.3303		-0.5560		C.ar		1		UNL1		0.7199
6		N		4.4081		-0.9384		-0.6605		N.pl3		1		UNL1		-0.7781
7		C		5.7051		-0.5091		-0.3711		C.ar		1		UNL1		0.3815
8		C		6.0254		0.7619		0.1389		C.ar		1		UNL1		-0.1596
9		C		7.3513		1.0900		0.3928		C.ar		1		UNL1		-0.1552
10		C		8.3869		0.1729		0.1497		C.ar		1		UNL1		0.1327
11		C		9.7482		0.5250		0.4159		C.1		1		UNL1		0.2281
12		N		10.8554		0.8119		0.6323		N.1		1		UNL1		-0.4833
13		C		8.0643		-1.0973		-0.3595		C.ar		1		UNL1		-0.1406
14		C		6.7441		-1.4297		-0.6147		C.ar		1		UNL1		-0.2036
15		N		2.1639		-1.1225		-0.9490		N.ar		1		UNL1		-0.5501
16		C		0.9771		-0.5354		-0.8488		C.ar		1		UNL1		0.6883
17		O		-0.0518		-1.3267		-1.2461		O.3		1		UNL1		-0.5359
18		C		-1.3500		-0.8490		-1.1522		C.ar		1		UNL1		0.3323
19		C		-1.9580		-0.3772		-2.3359		C.ar		1		UNL1		-0.1501
20		C		-3.2729		0.0161		-2.3271		C.ar		1		UNL1		-0.2009
21		C		-4.0390		-0.0447		-1.1334		C.ar		1		UNL1		0.1545
22		C		-5.3997		0.3615		-1.1132		C.ar		1		UNL1		-0.2261
23		C		-6.1222		0.2920		0.0519		C.ar		1		UNL1		0.0837
24		BR		-7.9521		0.8417		0.0746		Br		1		UNL1		-0.1228
25		C		-5.5394		-0.1808		1.2487		C.ar		1		UNL1		-0.1509
26		C		-4.2231		-0.5806		1.2534		C.ar		1		UNL1		-0.1881
27		C		-3.4321		-0.5276		0.0748		C.ar		1		UNL1		0.0941
28		C		-2.0661		-0.9296		0.0230		C.ar		1		UNL1		-0.0005
29		BR		-1.1891		-1.5882		1.5787		Br		1		UNL1		-0.0981
30		N		0.7105		0.6927		-0.4306		N.ar		1		UNL1		-0.5416
31		H		3.3990		3.7073		0.0567		H		1		UNL1		0.1789
32		H		2.2045		4.4813		1.1226		H		1		UNL1		0.1617
33		H		3.1776		3.1152		1.7165		H		1		UNL1		0.1772
34		H		0.6431		2.9319		0.4186		H		1		UNL1		0.3479
35		H		4.3197		-1.8823		-1.0166		H		1		UNL1		0.3527
36		H		5.2329		1.4707		0.3283		H		1		UNL1		0.1891
37		H		7.5925		2.0724		0.7865		H		1		UNL1		0.1564
38		H		8.8531		-1.8170		-0.5524		H		1		UNL1		0.1600
39		H		6.5062		-2.4149		-1.0086		H		1		UNL1		0.1414
40		H		-1.3590		-0.3433		-3.2400		H		1		UNL1		0.1552
41		H		-3.7433		0.3785		-3.2367		H		1		UNL1		0.1472
42		H		-5.8584		0.7256		-2.0267		H		1		UNL1		0.1575
43		H		-6.1334		-0.2256		2.1547		H		1		UNL1		0.1595
44		H		-3.7737		-0.9435		2.1706		H		1		UNL1		0.1656
@<TRIPOS>BOND
1		40		19		1
2		41		20		1
3		19		20		ar
4		19		18		ar
5		20		21		ar
6		42		22		1
7		17		18		1
8		17		16		1
9		18		28		ar
10		21		22		ar
11		21		27		ar
12		22		23		ar
13		35		6		1
14		39		14		1
15		15		16		ar
16		15		5		ar
17		16		30		ar
18		6		5		1
19		6		7		1
20		14		7		ar
21		14		13		ar
22		5		4		ar
23		38		13		1
24		30		3		ar
25		7		8		ar
26		13		10		ar
27		4		3		ar
28		3		2		1
29		28		27		ar
30		28		29		1
31		23		24		1
32		23		25		ar
33		31		1		1
34		27		26		ar
35		8		36		1
36		8		9		ar
37		10		9		ar
38		10		11		1
39		2		34		1
40		2		1		1
41		9		37		1
42		11		12		3
43		1		32		1
44		1		33		1
45		25		26		ar
46		25		43		1
47		26		44		1

