@<TRIPOS>MOLECULE
XYZ-2008-EJMC-1230-9F
 50 53 0 0 0
SMALL
MULLIKEN_CHARGES
****
Gaussian 16 #p B3LYP/6-31G* opt
@<TRIPOS>ATOM
1		C		-1.0168		5.2703		-1.0553		C.3		1		UNL1		-0.4437
2		C		-0.0561		4.8102		0.0505		C.3		1		UNL1		0.0566
3		C		-0.6762		4.9153		1.4514		C.3		1		UNL1		-0.4440
4		N		0.4966		3.4721		-0.2153		N.3		1		UNL1		-0.6444
5		C		-0.1588		2.2934		-0.2839		C.ar		1		UNL1		0.7078
6		N		-1.4906		2.2543		-0.1228		N.ar		1		UNL1		-0.5736
7		C		-2.0216		1.0211		-0.2162		C.ar		1		UNL1		0.7229
8		N		-3.3853		0.9938		-0.0552		N.pl3		1		UNL1		-0.7782
9		C		-4.3138		-0.0517		-0.0709		C.ar		1		UNL1		0.3798
10		C		-5.6630		0.3029		0.1274		C.ar		1		UNL1		-0.2057
11		C		-6.6594		-0.6593		0.1297		C.ar		1		UNL1		-0.1406
12		C		-6.3332		-2.0124		-0.0676		C.ar		1		UNL1		0.1321
13		C		-7.3574		-3.0121		-0.0674		C.1		1		UNL1		0.2281
14		N		-8.1925		-3.8231		-0.0673		N.1		1		UNL1		-0.4848
15		C		-4.9879		-2.3653		-0.2646		C.ar		1		UNL1		-0.1548
16		C		-3.9837		-1.4050		-0.2680		C.ar		1		UNL1		-0.1597
17		N		-1.3532		-0.1150		-0.4411		N.ar		1		UNL1		-0.5438
18		C		-0.0385		0.0737		-0.5774		C.ar		1		UNL1		0.6920
19		O		0.6387		-1.0773		-0.8091		O.3		1		UNL1		-0.5358
20		C		2.0215		-1.0392		-0.9309		C.ar		1		UNL1		0.3297
21		C		2.5611		-1.0833		-2.2345		C.ar		1		UNL1		-0.1501
22		C		3.9205		-1.1484		-2.4129		C.ar		1		UNL1		-0.2044
23		C		4.8007		-1.1720		-1.2994		C.ar		1		UNL1		0.1541
24		C		6.2094		-1.2387		-1.4690		C.ar		1		UNL1		-0.1972
25		C		7.0549		-1.2638		-0.3844		C.ar		1		UNL1		-0.1306
26		C		6.5219		-1.2233		0.9255		C.ar		1		UNL1		-0.1338
27		C		5.1619		-1.1591		1.1295		C.ar		1		UNL1		-0.1876
28		C		4.2611		-1.1316		0.0314		C.ar		1		UNL1		0.0867
29		C		2.8439		-1.0682		0.1744		C.ar		1		UNL1		-0.0009
30		BR		2.0435		-1.0198		1.9025		Br		1		UNL1		-0.1044
31		N		0.6278		1.2103		-0.5234		N.ar		1		UNL1		-0.5441
32		H		-1.9102		4.6418		-1.0778		H		1		UNL1		0.1730
33		H		-0.5319		5.2209		-2.0360		H		1		UNL1		0.1479
34		H		-1.3230		6.3070		-0.8753		H		1		UNL1		0.1439
35		H		0.8229		5.4649		0.0231		H		1		UNL1		0.1376
36		H		-0.9803		5.9496		1.6482		H		1		UNL1		0.1438
37		H		-1.5556		4.2720		1.5343		H		1		UNL1		0.1732
38		H		0.0459		4.6179		2.2192		H		1		UNL1		0.1493
39		H		1.4962		3.3798		-0.3309		H		1		UNL1		0.3441
40		H		-3.7616		1.9192		0.1067		H		1		UNL1		0.3448
41		H		-5.9267		1.3468		0.2808		H		1		UNL1		0.1356
42		H		-7.6942		-0.3708		0.2835		H		1		UNL1		0.1574
43		H		-4.7275		-3.4080		-0.4166		H		1		UNL1		0.1605
44		H		-2.9510		-1.6842		-0.4196		H		1		UNL1		0.2027
45		H		1.8741		-1.0710		-3.0743		H		1		UNL1		0.1514
46		H		4.3397		-1.1841		-3.4147		H		1		UNL1		0.1418
47		H		6.6071		-1.2702		-2.4805		H		1		UNL1		0.1357
48		H		8.1302		-1.3151		-0.5297		H		1		UNL1		0.1359
49		H		7.1927		-1.2435		1.7799		H		1		UNL1		0.1372
50		H		4.7591		-1.1284		2.1354		H		1		UNL1		0.1565
@<TRIPOS>BOND
1		46		22		1
2		45		21		1
3		47		24		1
4		22		21		ar
5		22		23		ar
6		21		20		ar
7		33		1		1
8		24		23		ar
9		24		25		ar
10		23		28		ar
11		32		1		1
12		1		34		1
13		1		2		1
14		20		19		1
15		20		29		ar
16		19		18		1
17		18		31		ar
18		18		17		ar
19		48		25		1
20		31		5		ar
21		17		7		ar
22		44		16		1
23		43		15		1
24		25		26		ar
25		39		4		1
26		5		4		1
27		5		6		ar
28		16		15		ar
29		16		9		ar
30		15		12		ar
31		7		6		ar
32		7		8		1
33		4		2		1
34		9		8		1
35		9		10		ar
36		12		13		1
37		12		11		ar
38		13		14		3
39		8		40		1
40		35		2		1
41		28		29		ar
42		28		27		ar
43		2		3		1
44		10		11		ar
45		10		41		1
46		11		42		1
47		29		30		1
48		26		27		ar
49		26		49		1
50		27		50		1
51		3		37		1
52		3		36		1
53		3		38		1

