@<TRIPOS>MOLECULE
XYZ-2008-EJMC-1230-8D
 44 47 0 0 0
SMALL
MULLIKEN_CHARGES
****
Gaussian 16 #p B3LYP/6-31G* opt
@<TRIPOS>ATOM
1		C		-3.4530		4.2189		0.0793		C.3		1		UNL1		-0.2924
2		N		-2.0122		4.1233		0.2201		N.3		1		UNL1		-0.6223
3		C		-1.3243		2.9646		0.2793		C.ar		1		UNL1		0.6950
4		N		-2.0236		1.8117		0.1981		N.ar		1		UNL1		-0.5636
5		C		-1.2630		0.7179		0.2634		C.ar		1		UNL1		0.7212
6		N		-1.8228		-0.5340		0.1896		N.pl3		1		UNL1		-0.7791
7		C		-3.1412		-0.9728		0.0458		C.ar		1		UNL1		0.3810
8		C		-3.3411		-2.3668		-0.0048		C.ar		1		UNL1		-0.2039
9		C		-4.6123		-2.8990		-0.1441		C.ar		1		UNL1		-0.1406
10		C		-5.7276		-2.0480		-0.2376		C.ar		1		UNL1		0.1328
11		C		-7.0445		-2.5892		-0.3818		C.1		1		UNL1		0.2283
12		N		-8.1160		-3.0290		-0.4990		N.1		1		UNL1		-0.4829
13		C		-5.5280		-0.6587		-0.1872		C.ar		1		UNL1		-0.1552
14		C		-4.2552		-0.1194		-0.0474		C.ar		1		UNL1		-0.1597
15		N		0.0798		0.6886		0.4022		N.ar		1		UNL1		-0.5545
16		C		0.6298		1.8971		0.4696		C.ar		1		UNL1		0.6768
17		O		1.9744		1.9954		0.6038		O.3		1		UNL1		-0.5439
18		C		2.7471		0.8370		0.6893		C.ar		1		UNL1		0.2933
19		C		2.9172		0.2193		1.9021		C.ar		1		UNL1		-0.1476
20		C		3.7658		-0.9043		2.0038		C.ar		1		UNL1		-0.1588
21		C		4.4230		-1.3736		0.8905		C.ar		1		UNL1		-0.1312
22		CL		5.4659		-2.7825		1.0717		Cl		1		UNL1		-0.0146
23		C		4.2849		-0.7514		-0.3848		C.ar		1		UNL1		0.1244
24		C		4.9514		-1.1955		-1.5576		C.ar		1		UNL1		-0.1983
25		C		4.7781		-0.5435		-2.7575		C.ar		1		UNL1		-0.1294
26		C		3.9335		0.5876		-2.8463		C.ar		1		UNL1		-0.1318
27		C		3.2701		1.0462		-1.7317		C.ar		1		UNL1		-0.1898
28		C		3.4206		0.3927		-0.4804		C.ar		1		UNL1		0.1206
29		N		0.0143		3.0706		0.4152		N.ar		1		UNL1		-0.5372
30		H		-3.7251		5.2762		0.0521		H		1		UNL1		0.1616
31		H		-3.9686		3.7435		0.9211		H		1		UNL1		0.1768
32		H		-3.7942		3.7428		-0.8463		H		1		UNL1		0.1776
33		H		-1.4503		4.9589		0.2899		H		1		UNL1		0.3480
34		H		-1.1164		-1.2573		0.2483		H		1		UNL1		0.3525
35		H		-2.4857		-3.0344		0.0662		H		1		UNL1		0.1418
36		H		-4.7503		-3.9746		-0.1817		H		1		UNL1		0.1603
37		H		-6.3843		0.0046		-0.2586		H		1		UNL1		0.1569
38		H		-4.1070		0.9497		-0.0093		H		1		UNL1		0.1897
39		H		2.3976		0.5951		2.7769		H		1		UNL1		0.1494
40		H		3.8997		-1.3974		2.9603		H		1		UNL1		0.1589
41		H		5.6041		-2.0586		-1.4935		H		1		UNL1		0.1593
42		H		5.2976		-0.8983		-3.6432		H		1		UNL1		0.1383
43		H		3.8118		1.0968		-3.7982		H		1		UNL1		0.1377
44		H		2.6314		1.9209		-1.7882		H		1		UNL1		0.1547
@<TRIPOS>BOND
1		43		26		1
2		42		25		1
3		26		25		ar
4		26		27		ar
5		25		24		ar
6		44		27		1
7		27		28		ar
8		24		41		1
9		24		23		ar
10		32		1		1
11		12		11		3
12		28		23		ar
13		28		18		ar
14		23		21		ar
15		11		10		1
16		37		13		1
17		10		13		ar
18		10		9		ar
19		13		14		ar
20		36		9		1
21		9		8		ar
22		14		38		1
23		14		7		ar
24		8		7		ar
25		8		35		1
26		7		6		1
27		30		1		1
28		1		2		1
29		1		31		1
30		6		34		1
31		6		5		1
32		4		5		ar
33		4		3		ar
34		2		3		1
35		2		33		1
36		5		15		ar
37		3		29		ar
38		15		16		ar
39		29		16		ar
40		16		17		1
41		17		18		1
42		18		19		ar
43		21		22		1
44		21		20		ar
45		19		20		ar
46		19		39		1
47		20		40		1

