@<TRIPOS>MOLECULE
XYZ-2008-EJMC-1230-9C
 47 50 0 0 0
SMALL
MULLIKEN_CHARGES
****
Gaussian 16 #p B3LYP/6-31G* opt
@<TRIPOS>ATOM
1		C		0.2965		3.2139		0.4654		C.3		1		UNL1		-0.4568
2		C		-0.3264		3.0115		-0.9200		C.3		1		UNL1		-0.1251
3		N		-1.6453		2.3839		-0.8836		N.3		1		UNL1		-0.6266
4		C		-1.8521		1.0632		-0.6954		C.ar		1		UNL1		0.7048
5		N		-3.1328		0.6648		-0.5200		N.ar		1		UNL1		-0.5674
6		C		-3.2690		-0.6464		-0.3240		C.ar		1		UNL1		0.7215
7		N		-4.5103		-1.2064		-0.1423		N.pl3		1		UNL1		-0.7780
8		C		-5.7973		-0.6653		-0.1210		C.ar		1		UNL1		0.3819
9		C		-6.8569		-1.5639		0.1154		C.ar		1		UNL1		-0.2043
10		C		-8.1695		-1.1232		0.1522		C.ar		1		UNL1		-0.1404
11		C		-8.4635		0.2372		-0.0475		C.ar		1		UNL1		0.1322
12		C		-9.8168		0.7011		-0.0110		C.1		1		UNL1		0.2280
13		N		-10.9176		1.0786		0.0186		N.1		1		UNL1		-0.4835
14		C		-7.4074		1.1325		-0.2833		C.ar		1		UNL1		-0.1531
15		C		-6.0891		0.6959		-0.3214		C.ar		1		UNL1		-0.1545
16		N		-2.2694		-1.5549		-0.2679		N.ar		1		UNL1		-0.5516
17		C		-1.0738		-1.0203		-0.4639		C.ar		1		UNL1		0.6826
18		O		-0.0594		-1.9220		-0.4089		O.3		1		UNL1		-0.5355
19		C		1.2502		-1.4930		-0.5569		C.ar		1		UNL1		0.3300
20		C		1.8999		-1.8331		-1.7639		C.ar		1		UNL1		-0.1543
21		C		3.2260		-1.5291		-1.9460		C.ar		1		UNL1		-0.1995
22		C		3.9635		-0.8671		-0.9299		C.ar		1		UNL1		0.1537
23		C		5.3343		-0.5422		-1.1094		C.ar		1		UNL1		-0.2256
24		C		6.0268		0.0985		-0.1121		C.ar		1		UNL1		0.0835
25		BR		7.8703		0.5355		-0.3588		Br		1		UNL1		-0.1217
26		C		5.4024		0.4478		1.1060		C.ar		1		UNL1		-0.1508
27		C		4.0758		0.1425		1.3033		C.ar		1		UNL1		-0.1891
28		C		3.3154		-0.5206		0.3032		C.ar		1		UNL1		0.0947
29		C		1.9408		-0.8618		0.4565		C.ar		1		UNL1		0.0039
30		BR		1.0247		-0.4463		2.0717		Br		1		UNL1		-0.0936
31		N		-0.7776		0.2503		-0.7027		N.ar		1		UNL1		-0.5337
32		H		1.2612		3.7262		0.3709		H		1		UNL1		0.1487
33		H		-0.3509		3.8248		1.1051		H		1		UNL1		0.1427
34		H		0.4669		2.2517		0.9573		H		1		UNL1		0.1885
35		H		-0.4462		3.9706		-1.4347		H		1		UNL1		0.1487
36		H		0.3227		2.3847		-1.5360		H		1		UNL1		0.1845
37		H		-2.4660		2.9637		-0.7771		H		1		UNL1		0.3376
38		H		-4.4433		-2.2058		0.0070		H		1		UNL1		0.3524
39		H		-6.6412		-2.6183		0.2715		H		1		UNL1		0.1410
40		H		-8.9745		-1.8274		0.3356		H		1		UNL1		0.1597
41		H		-7.6265		2.1842		-0.4389		H		1		UNL1		0.1568
42		H		-5.2808		1.3888		-0.5028		H		1		UNL1		0.1789
43		H		1.3214		-2.3417		-2.5280		H		1		UNL1		0.1573
44		H		3.7262		-1.7916		-2.8738		H		1		UNL1		0.1482
45		H		5.8245		-0.8055		-2.0409		H		1		UNL1		0.1581
46		H		5.9728		0.9542		1.8767		H		1		UNL1		0.1598
47		H		3.5933		0.4098		2.2363		H		1		UNL1		0.1652
@<TRIPOS>BOND
1		44		21		1
2		43		20		1
3		45		23		1
4		21		20		ar
5		21		22		ar
6		20		19		ar
7		36		2		1
8		35		2		1
9		23		22		ar
10		23		24		ar
11		22		28		ar
12		2		3		1
13		2		1		1
14		3		37		1
15		3		4		1
16		31		4		ar
17		31		17		ar
18		4		5		ar
19		19		18		1
20		19		29		ar
21		5		6		ar
22		42		15		1
23		17		18		1
24		17		16		ar
25		41		14		1
26		25		24		1
27		6		16		ar
28		6		7		1
29		15		14		ar
30		15		8		ar
31		14		11		ar
32		7		8		1
33		7		38		1
34		8		9		ar
35		24		26		ar
36		11		12		1
37		11		10		ar
38		12		13		3
39		9		10		ar
40		9		39		1
41		10		40		1
42		28		29		ar
43		28		27		ar
44		32		1		1
45		29		30		1
46		1		34		1
47		1		33		1
48		26		27		ar
49		26		46		1
50		27		47		1

