@<TRIPOS>MOLECULE
XYZ-2009-CB-561-8I
 50 53 0 0 0
SMALL
MULLIKEN_CHARGES
****
Gaussian 16 #p B3LYP/6-31G* opt
@<TRIPOS>ATOM
1		C		-1.3040		3.6938		1.3249		C.3		1		UNL1		-0.4388
2		C		-0.8832		3.2651		-0.0876		C.3		1		UNL1		0.0585
3		C		-0.7967		4.4489		-1.0545		C.3		1		UNL1		-0.4661
4		N		0.4087		2.5706		-0.0763		N.3		1		UNL1		-0.6432
5		C		0.5876		1.2625		0.1966		C.ar		1		UNL1		0.7139
6		N		1.8618		0.8046		0.1668		N.ar		1		UNL1		-0.5726
7		C		1.9710		-0.4995		0.4164		C.ar		1		UNL1		0.7268
8		N		3.2046		-1.1070		0.4261		N.pl3		1		UNL1		-0.7840
9		C		4.4826		-0.6074		0.2104		C.ar		1		UNL1		0.3242
10		C		4.8194		0.7238		-0.0867		C.ar		1		UNL1		-0.1582
11		C		6.1489		1.0859		-0.2790		C.ar		1		UNL1		-0.1491
12		C		7.1803		0.1388		-0.1819		C.ar		1		UNL1		0.1335
13		C		8.5439		0.5242		-0.3812		C.1		1		UNL1		0.2305
14		N		9.6519		0.8413		-0.5435		N.1		1		UNL1		-0.4796
15		C		6.8606		-1.1990		0.1147		C.ar		1		UNL1		-0.2150
16		C		5.5386		-1.5360		0.3012		C.ar		1		UNL1		0.3160
17		F		5.2125		-2.8207		0.5878		F		1		UNL1		-0.2969
18		N		0.9603		-1.3549		0.6761		N.ar		1		UNL1		-0.5495
19		C		-0.2278		-0.7663		0.6773		C.ar		1		UNL1		0.6863
20		O		-1.2522		-1.6120		0.9458		O.3		1		UNL1		-0.5336
21		C		-2.5524		-1.1263		0.9711		C.ar		1		UNL1		0.3283
22		C		-3.1389		-0.9229		2.2392		C.ar		1		UNL1		-0.1523
23		C		-4.4533		-0.5390		2.3354		C.ar		1		UNL1		-0.2040
24		C		-5.2407		-0.3410		1.1712		C.ar		1		UNL1		0.1538
25		C		-6.6016		0.0572		1.2552		C.ar		1		UNL1		-0.1971
26		C		-7.3580		0.2445		0.1217		C.ar		1		UNL1		-0.1308
27		C		-6.7798		0.0391		-1.1530		C.ar		1		UNL1		-0.1338
28		C		-5.4641		-0.3478		-1.2741		C.ar		1		UNL1		-0.1884
29		C		-4.6551		-0.5499		-0.1240		C.ar		1		UNL1		0.0863
30		C		-3.2883		-0.9525		-0.1812		C.ar		1		UNL1		0.0003
31		BR		-2.4376		-1.2567		-1.8582		Br		1		UNL1		-0.1045
32		N		-0.5014		0.5156		0.4660		N.ar		1		UNL1		-0.5362
33		H		-0.5832		4.4023		1.7509		H		1		UNL1		0.1392
34		H		-1.3690		2.8227		1.9831		H		1		UNL1		0.1695
35		H		-2.2865		4.1790		1.3003		H		1		UNL1		0.1472
36		H		-1.6135		2.5430		-0.4643		H		1		UNL1		0.1808
37		H		-0.0486		5.1798		-0.7195		H		1		UNL1		0.1426
38		H		-0.5287		4.1179		-2.0633		H		1		UNL1		0.1617
39		H		-1.7601		4.9656		-1.1069		H		1		UNL1		0.1610
40		H		1.2554		3.1031		-0.2236		H		1		UNL1		0.3329
41		H		3.1479		-2.0983		0.6247		H		1		UNL1		0.3630
42		H		4.0264		1.4533		-0.1621		H		1		UNL1		0.1842
43		H		6.3941		2.1175		-0.5080		H		1		UNL1		0.1587
44		H		7.6259		-1.9620		0.1985		H		1		UNL1		0.1740
45		H		-2.5250		-1.0861		3.1189		H		1		UNL1		0.1520
46		H		-4.9078		-0.3832		3.3100		H		1		UNL1		0.1421
47		H		-7.0351		0.2110		2.2404		H		1		UNL1		0.1359
48		H		-8.3978		0.5489		0.2017		H		1		UNL1		0.1362
49		H		-7.3802		0.1875		-2.0462		H		1		UNL1		0.1374
50		H		-5.0266		-0.5039		-2.2536		H		1		UNL1		0.1566
@<TRIPOS>BOND
1		50		28		1
2		38		3		1
3		49		27		1
4		31		30		1
5		28		27		ar
6		28		29		ar
7		27		26		ar
8		39		3		1
9		3		37		1
10		3		2		1
11		14		13		3
12		43		11		1
13		36		2		1
14		13		12		1
15		11		12		ar
16		11		10		ar
17		40		4		1
18		12		15		ar
19		30		29		ar
20		30		21		ar
21		42		10		1
22		29		24		ar
23		2		4		1
24		2		1		1
25		10		9		ar
26		4		5		1
27		15		44		1
28		15		16		ar
29		26		48		1
30		26		25		ar
31		6		5		ar
32		6		7		ar
33		5		32		ar
34		9		16		ar
35		9		8		1
36		16		17		1
37		7		8		1
38		7		18		ar
39		8		41		1
40		32		19		ar
41		18		19		ar
42		19		20		1
43		20		21		1
44		21		22		ar
45		24		25		ar
46		24		23		ar
47		25		47		1
48		35		1		1
49		1		33		1
50		1		34		1
51		22		23		ar
52		22		45		1
53		23		46		1

