@<TRIPOS>MOLECULE
XYZ-2009-CB-561-8M
 48 51 0 0 0
SMALL
MULLIKEN_CHARGES
****
Gaussian 16 #p B3LYP/6-31G* opt
@<TRIPOS>ATOM
1		C		-5.1589		5.4978		0.0804		C.2		1		UNL1		-0.3324
2		C		-4.3770		4.5968		-0.5137		C.2		1		UNL1		-0.0689
3		C		-3.6727		3.4821		0.2122		C.3		1		UNL1		-0.1632
4		N		-2.2308		3.5695		0.0189		N.3		1		UNL1		-0.6402
5		C		-1.3745		2.5294		-0.0889		C.ar		1		UNL1		0.7078
6		N		-1.8747		1.2739		-0.0680		N.ar		1		UNL1		-0.5709
7		C		-0.9479		0.3252		-0.2066		C.ar		1		UNL1		0.7279
8		N		-1.3029		-1.0024		-0.2133		N.pl3		1		UNL1		-0.7864
9		C		-2.5336		-1.6332		-0.0758		C.ar		1		UNL1		0.3232
10		C		-3.7679		-1.0103		0.1714		C.ar		1		UNL1		-0.1625
11		C		-4.9271		-1.7703		0.2912		C.ar		1		UNL1		-0.1523
12		C		-4.8932		-3.1683		0.1714		C.ar		1		UNL1		0.1338
13		C		-6.0924		-3.9393		0.2954		C.1		1		UNL1		0.2314
14		N		-7.0694		-4.5637		0.3962		N.1		1		UNL1		-0.4784
15		C		-3.6643		-3.8089		-0.0720		C.ar		1		UNL1		-0.2146
16		C		-2.5295		-3.0376		-0.1878		C.ar		1		UNL1		0.3169
17		F		-1.3362		-3.6383		-0.4203		F		1		UNL1		-0.2967
18		N		0.3785		0.5187		-0.3504		N.ar		1		UNL1		-0.5549
19		C		0.7252		1.8025		-0.3364		C.ar		1		UNL1		0.6874
20		O		2.0351		2.1212		-0.4623		O.3		1		UNL1		-0.5319
21		C		2.9723		1.1065		-0.6035		C.ar		1		UNL1		0.3584
22		C		3.2926		0.6663		-1.9063		C.ar		1		UNL1		-0.1412
23		C		4.2855		-0.2625		-2.0923		C.ar		1		UNL1		-0.2064
24		C		5.0045		-0.7910		-0.9877		C.ar		1		UNL1		0.1545
25		C		6.0356		-1.7516		-1.1645		C.ar		1		UNL1		-0.1959
26		C		6.7283		-2.2557		-0.0881		C.ar		1		UNL1		-0.1306
27		C		6.4167		-1.8159		1.2198		C.ar		1		UNL1		-0.1333
28		C		5.4240		-0.8851		1.4309		C.ar		1		UNL1		-0.1944
29		C		4.6903		-0.3460		0.3409		C.ar		1		UNL1		0.1230
30		C		3.6508		0.6199		0.4937		C.ar		1		UNL1		-0.1860
31		CL		3.2171		1.2059		2.0865		Cl		1		UNL1		0.0127
32		N		-0.0714		2.8546		-0.2172		N.ar		1		UNL1		-0.5345
33		H		-5.6625		6.2781		-0.4833		H		1		UNL1		0.1538
34		H		-5.3331		5.4839		1.1545		H		1		UNL1		0.1473
35		H		-4.2137		4.6364		-1.5906		H		1		UNL1		0.1451
36		H		-3.9879		2.5099		-0.1786		H		1		UNL1		0.1940
37		H		-3.9278		3.5044		1.2816		H		1		UNL1		0.1574
38		H		-1.7896		4.4785		0.0624		H		1		UNL1		0.3466
39		H		-0.5083		-1.6171		-0.3401		H		1		UNL1		0.3631
40		H		-3.7950		0.0649		0.2683		H		1		UNL1		0.1979
41		H		-5.8735		-1.2755		0.4822		H		1		UNL1		0.1601
42		H		-3.5934		-4.8861		-0.1694		H		1		UNL1		0.1746
43		H		2.7398		1.0862		-2.7401		H		1		UNL1		0.1491
44		H		4.5351		-0.6033		-3.0934		H		1		UNL1		0.1419
45		H		6.2669		-2.0819		-2.1742		H		1		UNL1		0.1359
46		H		7.5142		-2.9905		-0.2388		H		1		UNL1		0.1363
47		H		6.9664		-2.2167		2.0669		H		1		UNL1		0.1377
48		H		5.1919		-0.5539		2.4366		H		1		UNL1		0.1580
@<TRIPOS>BOND
1		44		23		1
2		43		22		1
3		45		25		1
4		23		22		ar
5		23		24		ar
6		22		21		ar
7		35		2		1
8		25		24		ar
9		25		26		ar
10		24		29		ar
11		21		20		1
12		21		30		ar
13		2		1		2
14		2		3		1
15		33		1		1
16		20		19		1
17		17		16		1
18		18		19		ar
19		18		7		ar
20		39		8		1
21		19		32		ar
22		46		26		1
23		32		5		ar
24		8		7		1
25		8		9		1
26		7		6		ar
27		16		9		ar
28		16		15		ar
29		36		3		1
30		42		15		1
31		5		6		ar
32		5		4		1
33		26		27		ar
34		9		10		ar
35		15		12		ar
36		4		38		1
37		4		3		1
38		1		34		1
39		12		11		ar
40		12		13		1
41		10		40		1
42		10		11		ar
43		3		37		1
44		11		41		1
45		13		14		3
46		29		30		ar
47		29		28		ar
48		30		31		1
49		27		28		ar
50		27		47		1
51		28		48		1

