@<TRIPOS>MOLECULE
XYZ-2008-EJMC-1230-8B
 41 44 0 0 0
SMALL
MULLIKEN_CHARGES
****
Gaussian 16 #p B3LYP/6-31G* opt
@<TRIPOS>ATOM
1		N		-9.0349		0.1646		0.7251		N.1		1		UNL1		-0.4837
2		C		-7.9027		0.2100		0.4580		C.1		1		UNL1		0.2279
3		C		-6.5109		0.2660		0.1301		C.ar		1		UNL1		0.1321
4		C		-5.5711		-0.4644		0.8757		C.ar		1		UNL1		-0.1530
5		C		-4.2169		-0.4190		0.5688		C.ar		1		UNL1		-0.1545
6		C		-3.7698		0.3701		-0.5063		C.ar		1		UNL1		0.3819
7		N		-2.4344		0.4845		-0.8985		N.pl3		1		UNL1		-0.7773
8		C		-1.2714		-0.0616		-0.4119		C.ar		1		UNL1		0.7169
9		N		-1.2926		-0.8754		0.6474		N.ar		1		UNL1		-0.5504
10		C		-0.0748		-1.3294		1.0034		C.ar		1		UNL1		0.6704
11		N		-0.0139		-2.1754		2.0561		N.3		1		UNL1		-0.7708
12		N		1.0895		-1.0306		0.3970		N.ar		1		UNL1		-0.5218
13		C		0.9495		-0.2098		-0.6393		C.ar		1		UNL1		0.6764
14		O		2.0467		0.1709		-1.3282		O.3		1		UNL1		-0.5412
15		C		3.3051		-0.3147		-0.9557		C.ar		1		UNL1		0.2852
16		C		3.7339		-1.5269		-1.4359		C.ar		1		UNL1		-0.1505
17		C		5.0395		-1.9768		-1.1299		C.ar		1		UNL1		-0.1513
18		C		5.8808		-1.2059		-0.3606		C.ar		1		UNL1		-0.1793
19		C		5.4586		0.0571		0.1344		C.ar		1		UNL1		0.1210
20		C		6.3055		0.8810		0.9239		C.ar		1		UNL1		-0.1960
21		C		5.8741		2.1038		1.3850		C.ar		1		UNL1		-0.1306
22		C		4.5714		2.5646		1.0740		C.ar		1		UNL1		-0.1367
23		C		3.7209		1.7948		0.3129		C.ar		1		UNL1		-0.1880
24		C		4.1379		0.5260		-0.1693		C.ar		1		UNL1		0.1171
25		N		-0.1792		0.3161		-1.1057		N.ar		1		UNL1		-0.5501
26		C		-4.7128		1.1025		-1.2550		C.ar		1		UNL1		-0.2045
27		C		-6.0618		1.0535		-0.9446		C.ar		1		UNL1		-0.1403
28		H		-5.9102		-1.0754		1.7064		H		1		UNL1		0.1568
29		H		-3.4987		-0.9830		1.1454		H		1		UNL1		0.1794
30		H		-2.2532		1.0793		-1.6979		H		1		UNL1		0.3520
31		H		-0.8385		-2.3244		2.6160		H		1		UNL1		0.3503
32		H		0.8922		-2.4318		2.4168		H		1		UNL1		0.3559
33		H		3.0656		-2.1277		-2.0441		H		1		UNL1		0.1416
34		H		5.3717		-2.9385		-1.5104		H		1		UNL1		0.1364
35		H		6.8844		-1.5513		-0.1258		H		1		UNL1		0.1313
36		H		7.3069		0.5263		1.1561		H		1		UNL1		0.1323
37		H		6.5339		2.7229		1.9867		H		1		UNL1		0.1327
38		H		4.2442		3.5350		1.4373		H		1		UNL1		0.1333
39		H		2.7276		2.1521		0.0628		H		1		UNL1		0.1486
40		H		-4.3767		1.7152		-2.0882		H		1		UNL1		0.1408
41		H		-6.7755		1.6234		-1.5305		H		1		UNL1		0.1596
@<TRIPOS>BOND
1		40		26		1
2		33		16		1
3		30		7		1
4		41		27		1
5		34		17		1
6		16		17		ar
7		16		15		ar
8		14		15		1
9		14		13		1
10		26		27		ar
11		26		6		ar
12		17		18		ar
13		25		13		ar
14		25		8		ar
15		15		24		ar
16		27		3		ar
17		7		6		1
18		7		8		1
19		13		12		ar
20		6		5		ar
21		8		9		ar
22		18		35		1
23		18		19		ar
24		24		19		ar
25		24		23		ar
26		39		23		1
27		3		2		1
28		3		4		ar
29		19		20		ar
30		23		22		ar
31		12		10		ar
32		2		1		3
33		5		4		ar
34		5		29		1
35		9		10		ar
36		4		28		1
37		20		36		1
38		20		21		ar
39		10		11		1
40		22		21		ar
41		22		38		1
42		21		37		1
43		11		32		1
44		11		31		1

