@<TRIPOS>MOLECULE
XYZ-2009-CB-561-10E
 47 49 0 0 0
SMALL
MULLIKEN_CHARGES
****
Gaussian 16 #p B3LYP/6-31G* opt
@<TRIPOS>ATOM
1		C		-5.6601		-4.2484		0.0431		C.3		1		UNL1		-0.5312
2		C		-4.9876		-2.8953		0.0102		C.ar		1		UNL1		0.1872
3		C		-4.6999		-2.2617		-1.2058		C.ar		1		UNL1		-0.1960
4		C		-4.0549		-1.0255		-1.2445		C.ar		1		UNL1		-0.1434
5		C		-3.6920		-0.4138		-0.0498		C.ar		1		UNL1		0.3514
6		O		-3.1385		0.8721		-0.0813		O.3		1		UNL1		-0.5374
7		C		-1.7985		1.0216		-0.0763		C.ar		1		UNL1		0.6693
8		N		-1.0281		-0.0606		-0.0488		N.ar		1		UNL1		-0.5551
9		C		0.2924		0.2241		-0.0469		C.ar		1		UNL1		0.7263
10		N		1.0832		-0.9014		-0.0146		N.pl3		1		UNL1		-0.7847
11		C		2.4630		-1.0597		-0.0049		C.ar		1		UNL1		0.3244
12		C		3.4207		-0.0320		-0.0316		C.ar		1		UNL1		-0.1586
13		C		4.7782		-0.3366		-0.0183		C.ar		1		UNL1		-0.1491
14		C		5.2233		-1.6672		0.0219		C.ar		1		UNL1		0.1333
15		C		6.6222		-1.9674		0.0355		C.1		1		UNL1		0.2304
16		N		7.7608		-2.2087		0.0467		N.1		1		UNL1		-0.4797
17		C		4.2773		-2.7087		0.0487		C.ar		1		UNL1		-0.2152
18		C		2.9390		-2.3852		0.0349		C.ar		1		UNL1		0.3150
19		F		2.0136		-3.3768		0.0602		F		1		UNL1		-0.2978
20		N		0.8390		1.4354		-0.0717		N.ar		1		UNL1		-0.5741
21		C		-0.0697		2.4444		-0.1008		C.ar		1		UNL1		0.7108
22		N		0.4334		3.6962		-0.1478		N.3		1		UNL1		-0.6415
23		C		-0.3587		4.9290		-0.1034		C.3		1		UNL1		0.0569
24		C		0.4023		6.0327		-0.8428		C.3		1		UNL1		-0.4624
25		C		-0.7054		5.3230		1.3392		C.3		1		UNL1		-0.4389
26		N		-1.4054		2.2936		-0.0980		N.ar		1		UNL1		-0.5340
27		C		-3.9722		-1.0105		1.1752		C.ar		1		UNL1		-0.1408
28		C		-4.6170		-2.2464		1.1961		C.ar		1		UNL1		-0.1954
29		H		-6.2955		-4.3592		0.9284		H		1		UNL1		0.1589
30		H		-6.2844		-4.4074		-0.8423		H		1		UNL1		0.1582
31		H		-4.9212		-5.0605		0.0706		H		1		UNL1		0.1674
32		H		-4.9877		-2.7393		-2.1394		H		1		UNL1		0.1288
33		H		-3.8413		-0.5314		-2.1870		H		1		UNL1		0.1410
34		H		0.5424		-1.7571		0.0040		H		1		UNL1		0.3618
35		H		3.0790		0.9922		-0.0628		H		1		UNL1		0.1851
36		H		5.5065		0.4673		-0.0394		H		1		UNL1		0.1590
37		H		4.5778		-3.7496		0.0798		H		1		UNL1		0.1734
38		H		1.4401		3.7594		-0.0757		H		1		UNL1		0.3310
39		H		-1.2883		4.7094		-0.6358		H		1		UNL1		0.1801
40		H		0.6096		5.7451		-1.8787		H		1		UNL1		0.1606
41		H		1.3576		6.2546		-0.3483		H		1		UNL1		0.1412
42		H		-0.1844		6.9568		-0.8524		H		1		UNL1		0.1595
43		H		-1.2591		4.5177		1.8308		H		1		UNL1		0.1706
44		H		0.2025		5.5288		1.9195		H		1		UNL1		0.1379
45		H		-1.3289		6.2245		1.3512		H		1		UNL1		0.1472
46		H		-3.6948		-0.5053		2.0949		H		1		UNL1		0.1402
47		H		-4.8399		-2.7122		2.1533		H		1		UNL1		0.1286
@<TRIPOS>BOND
1		33		4		1
2		32		3		1
3		40		24		1
4		4		3		ar
5		4		5		ar
6		3		2		ar
7		42		24		1
8		24		41		1
9		24		23		1
10		30		1		1
11		39		23		1
12		22		23		1
13		22		21		1
14		22		38		1
15		23		25		1
16		21		26		ar
17		21		20		ar
18		26		7		ar
19		6		7		1
20		6		5		1
21		7		8		ar
22		20		9		ar
23		35		12		1
24		5		27		ar
25		8		9		ar
26		9		10		1
27		36		13		1
28		12		13		ar
29		12		11		ar
30		13		14		ar
31		10		11		1
32		10		34		1
33		11		18		ar
34		2		1		1
35		2		28		ar
36		14		15		1
37		14		17		ar
38		18		17		ar
39		18		19		1
40		15		16		3
41		1		31		1
42		1		29		1
43		17		37		1
44		27		28		ar
45		27		46		1
46		28		47		1
47		25		45		1
48		25		43		1
49		25		44		1

