@<TRIPOS>MOLECULE
XYZ-2008-EJMC-1230-9I
 41 44 0 0 0
SMALL
MULLIKEN_CHARGES
****
Gaussian 16 #p B3LYP/6-31G* opt
@<TRIPOS>ATOM
1		N		-9.7563		-0.1199		0.8825		N.1		1		UNL1		-0.4836
2		C		-8.6359		-0.1026		0.5671		C.1		1		UNL1		0.2280
3		C		-7.2584		-0.0811		0.1797		C.ar		1		UNL1		0.1322
4		C		-6.8709		-0.5064		-1.1032		C.ar		1		UNL1		-0.1403
5		C		-5.5355		-0.4828		-1.4700		C.ar		1		UNL1		-0.2043
6		C		-4.5454		-0.0355		-0.5724		C.ar		1		UNL1		0.3819
7		N		-3.2283		-0.0474		-1.0368		N.pl3		1		UNL1		-0.7774
8		C		-2.0334		0.2953		-0.4534		C.ar		1		UNL1		0.7191
9		N		-1.9914		0.7374		0.8065		N.ar		1		UNL1		-0.5499
10		C		-0.7493		1.0369		1.2340		C.ar		1		UNL1		0.6707
11		N		-0.6267		1.5167		2.4922		N.3		1		UNL1		-0.7697
12		N		0.3829		0.9192		0.5153		N.ar		1		UNL1		-0.5224
13		C		0.1793		0.4574		-0.7135		C.ar		1		UNL1		0.6874
14		O		1.2458		0.2945		-1.5318		O.3		1		UNL1		-0.5339
15		C		2.5213		0.5625		-1.0518		C.ar		1		UNL1		0.3290
16		C		3.1066		1.7949		-1.4138		C.ar		1		UNL1		-0.1497
17		C		4.4017		2.0716		-1.0530		C.ar		1		UNL1		-0.2040
18		C		5.1691		1.1319		-0.3161		C.ar		1		UNL1		0.1541
19		C		6.5103		1.4049		0.0638		C.ar		1		UNL1		-0.1971
20		C		7.2475		0.4874		0.7755		C.ar		1		UNL1		-0.1306
21		C		6.6692		-0.7514		1.1393		C.ar		1		UNL1		-0.1337
22		C		5.3723		-1.0519		0.7885		C.ar		1		UNL1		-0.1878
23		C		4.5836		-0.1269		0.0536		C.ar		1		UNL1		0.0870
24		C		3.2371		-0.3774		-0.3428		C.ar		1		UNL1		-0.0009
25		BR		2.3848		-2.0230		0.0996		Br		1		UNL1		-0.1053
26		N		-0.9769		0.1299		-1.2753		N.ar		1		UNL1		-0.5481
27		C		-4.9308		0.3908		0.7114		C.ar		1		UNL1		-0.1543
28		C		-6.2716		0.3648		1.0741		C.ar		1		UNL1		-0.1530
29		H		-7.6216		-0.8538		-1.8056		H		1		UNL1		0.1597
30		H		-5.2472		-0.8144		-2.4647		H		1		UNL1		0.1413
31		H		-3.0926		-0.3721		-1.9864		H		1		UNL1		0.3529
32		H		-1.4254		1.4873		3.1065		H		1		UNL1		0.3504
33		H		0.2989		1.6136		2.8807		H		1		UNL1		0.3557
34		H		2.5084		2.4993		-1.9824		H		1		UNL1		0.1516
35		H		4.8563		3.0188		-1.3304		H		1		UNL1		0.1422
36		H		6.9440		2.3601		-0.2220		H		1		UNL1		0.1360
37		H		8.2723		0.7103		1.0591		H		1		UNL1		0.1362
38		H		7.2546		-1.4738		1.7013		H		1		UNL1		0.1374
39		H		4.9344		-2.0028		1.0700		H		1		UNL1		0.1565
40		H		-4.1761		0.7346		1.4033		H		1		UNL1		0.1795
41		H		-6.5630		0.6953		2.0661		H		1		UNL1		0.1569
@<TRIPOS>BOND
1		30		5		1
2		31		7		1
3		34		16		1
4		29		4		1
5		14		15		1
6		14		13		1
7		5		4		ar
8		5		6		ar
9		16		17		ar
10		16		15		ar
11		35		17		1
12		26		13		ar
13		26		8		ar
14		4		3		ar
15		17		18		ar
16		15		24		ar
17		7		6		1
18		7		8		1
19		13		12		ar
20		6		27		ar
21		8		9		ar
22		24		23		ar
23		24		25		1
24		18		23		ar
25		18		19		ar
26		36		19		1
27		23		22		ar
28		19		20		ar
29		3		2		1
30		3		28		ar
31		12		10		ar
32		2		1		3
33		27		28		ar
34		27		40		1
35		20		37		1
36		20		21		ar
37		22		39		1
38		22		21		ar
39		9		10		ar
40		28		41		1
41		21		38		1
42		10		11		1
43		11		33		1
44		11		32		1

