@<TRIPOS>MOLECULE
XYZ-2009-APC-145-6C
 41 44 0 0 0
SMALL
MULLIKEN_CHARGES
****
Gaussian 16 #p B3LYP/6-31G* opt
@<TRIPOS>ATOM
1		N		8.2005		-2.1132		-0.4248		N.1		1		UNL1		-0.4799
2		C		7.0738		-1.8480		-0.3034		C.1		1		UNL1		0.2309
3		C		5.6872		-1.5247		-0.1536		C.ar		1		UNL1		0.1345
4		C		5.2475		-0.1956		-0.2625		C.ar		1		UNL1		-0.1536
5		C		3.9044		0.1321		-0.1192		C.ar		1		UNL1		-0.1591
6		C		2.9662		-0.8823		0.1394		C.ar		1		UNL1		0.3771
7		N		1.5909		-0.6647		0.3020		N.pl3		1		UNL1		-0.7748
8		C		0.8276		0.4678		0.2563		C.ar		1		UNL1		0.7266
9		N		1.3899		1.6593		0.0207		N.ar		1		UNL1		-0.5325
10		C		0.5128		2.6664		0.0015		C.ar		1		UNL1		0.6671
11		N		1.0932		3.9159		-0.2450		N.2		1		UNL1		-0.4474
12		N		0.2997		4.8821		-0.2691		N.2		1		UNL1		0.4750
13		N		-0.2798		5.8532		-0.3226		N.2		1		UNL1		-0.2027
14		N		-0.8071		2.5904		0.1876		N.ar		1		UNL1		-0.5156
15		C		-1.2333		1.3416		0.4171		C.ar		1		UNL1		0.6804
16		O		-2.5613		1.2544		0.6050		O.3		1		UNL1		-0.5335
17		C		-3.1458		0.0059		0.8662		C.ar		1		UNL1		0.2765
18		C		-3.2246		-0.4403		2.1613		C.ar		1		UNL1		-0.1528
19		C		-3.8858		-1.6600		2.4382		C.ar		1		UNL1		-0.1522
20		C		-4.4499		-2.3934		1.4195		C.ar		1		UNL1		-0.1774
21		C		-4.3883		-1.9385		0.0748		C.ar		1		UNL1		0.1195
22		C		-4.9691		-2.6686		-0.9969		C.ar		1		UNL1		-0.1954
23		C		-4.9027		-2.2013		-2.2897		C.ar		1		UNL1		-0.1300
24		C		-4.2539		-0.9746		-2.5727		C.ar		1		UNL1		-0.1357
25		C		-3.6775		-0.2389		-1.5619		C.ar		1		UNL1		-0.1893
26		C		-3.7241		-0.7022		-0.2205		C.ar		1		UNL1		0.1223
27		N		-0.4891		0.2464		0.4664		N.ar		1		UNL1		-0.5350
28		C		3.4053		-2.2154		0.2489		C.ar		1		UNL1		-0.2042
29		C		4.7456		-2.5357		0.1050		C.ar		1		UNL1		-0.1399
30		H		5.9690		0.5902		-0.4621		H		1		UNL1		0.1641
31		H		3.5749		1.1575		-0.2048		H		1		UNL1		0.2021
32		H		1.0291		-1.4876		0.4843		H		1		UNL1		0.3555
33		H		-2.7804		0.1470		2.9584		H		1		UNL1		0.1443
34		H		-3.9441		-2.0106		3.4645		H		1		UNL1		0.1398
35		H		-4.9580		-3.3305		1.6317		H		1		UNL1		0.1347
36		H		-5.4720		-3.6068		-0.7750		H		1		UNL1		0.1352
37		H		-5.3527		-2.7703		-3.0985		H		1		UNL1		0.1361
38		H		-4.2153		-0.6112		-3.5959		H		1		UNL1		0.1371
39		H		-3.1937		0.7080		-1.7770		H		1		UNL1		0.1485
40		H		2.6843		-3.0048		0.4485		H		1		UNL1		0.1419
41		H		5.0710		-3.5671		0.1915		H		1		UNL1		0.1618
@<TRIPOS>BOND
1		38		24		1
2		37		23		1
3		24		23		ar
4		24		25		ar
5		23		22		ar
6		39		25		1
7		25		26		ar
8		22		36		1
9		22		21		ar
10		30		4		1
11		1		2		3
12		13		12		2
13		2		3		1
14		12		11		2
15		4		3		ar
16		4		5		ar
17		11		10		1
18		26		21		ar
19		26		17		ar
20		31		5		1
21		3		29		ar
22		5		6		ar
23		10		9		ar
24		10		14		ar
25		9		8		ar
26		21		20		ar
27		29		41		1
28		29		28		ar
29		6		28		ar
30		6		7		1
31		14		15		ar
32		28		40		1
33		8		7		1
34		8		27		ar
35		7		32		1
36		15		27		ar
37		15		16		1
38		16		17		1
39		17		18		ar
40		20		35		1
41		20		19		ar
42		18		19		ar
43		18		33		1
44		19		34		1

