@<TRIPOS>MOLECULE
XYZ-2009-CB-561-10C
 44 46 0 0 0
SMALL
MULLIKEN_CHARGES
****
Gaussian 16 #p B3LYP/6-31G* opt
@<TRIPOS>ATOM
1		C		0.7480		5.6795		1.0463		C.3		1		UNL1		-0.4416
2		C		0.4429		5.1544		-0.3596		C.3		1		UNL1		-0.1271
3		N		-0.3793		3.9493		-0.3636		N.3		1		UNL1		-0.6283
4		C		0.1002		2.6907		-0.2559		C.ar		1		UNL1		0.7046
5		N		-0.8272		1.7021		-0.1848		N.ar		1		UNL1		-0.5723
6		C		-0.3031		0.4830		-0.1010		C.ar		1		UNL1		0.7259
7		N		-1.1146		-0.6248		-0.0198		N.pl3		1		UNL1		-0.7846
8		C		-2.4973		-0.7572		-0.0078		C.ar		1		UNL1		0.3243
9		C		-3.4358		0.2852		-0.0878		C.ar		1		UNL1		-0.1585
10		C		-4.7987		0.0064		-0.0652		C.ar		1		UNL1		-0.1490
11		C		-5.2682		-1.3125		0.0370		C.ar		1		UNL1		0.1334
12		C		-6.6725		-1.5862		0.0595		C.1		1		UNL1		0.2305
13		N		-7.8154		-1.8058		0.0777		N.1		1		UNL1		-0.4795
14		C		-4.3416		-2.3685		0.1176		C.ar		1		UNL1		-0.2151
15		C		-2.9976		-2.0705		0.0936		C.ar		1		UNL1		0.3151
16		F		-2.0906		-3.0762		0.1700		F		1		UNL1		-0.2978
17		N		1.0119		0.1749		-0.0835		N.ar		1		UNL1		-0.5546
18		C		1.8024		1.2404		-0.1578		C.ar		1		UNL1		0.6693
19		O		3.1392		1.0668		-0.1467		O.3		1		UNL1		-0.5372
20		C		3.6693		-0.2271		-0.0713		C.ar		1		UNL1		0.3511
21		C		4.0429		-0.7352		1.1679		C.ar		1		UNL1		-0.1438
22		C		4.6654		-1.9818		1.2310		C.ar		1		UNL1		-0.1959
23		C		4.9200		-2.7280		0.0729		C.ar		1		UNL1		0.1872
24		C		5.5680		-4.0911		0.1520		C.3		1		UNL1		-0.5312
25		C		4.5395		-2.1821		-1.1608		C.ar		1		UNL1		-0.1955
26		C		3.9170		-0.9372		-1.2416		C.ar		1		UNL1		-0.1405
27		N		1.4324		2.5169		-0.2403		N.ar		1		UNL1		-0.5331
28		H		-0.1725		5.9148		1.5928		H		1		UNL1		0.1428
29		H		1.3098		4.9338		1.6169		H		1		UNL1		0.1725
30		H		1.3512		6.5928		0.9871		H		1		UNL1		0.1503
31		H		-0.0880		5.9114		-0.9474		H		1		UNL1		0.1479
32		H		1.3717		4.9171		-0.8825		H		1		UNL1		0.1920
33		H		-1.3835		4.0331		-0.2919		H		1		UNL1		0.3351
34		H		-0.5899		-1.4885		0.0423		H		1		UNL1		0.3620
35		H		-3.0754		1.3003		-0.1667		H		1		UNL1		0.1849
36		H		-5.5121		0.8213		-0.1279		H		1		UNL1		0.1591
37		H		-4.6613		-3.4011		0.1974		H		1		UNL1		0.1736
38		H		3.8549		-0.1538		2.0650		H		1		UNL1		0.1407
39		H		4.9617		-2.3784		2.1992		H		1		UNL1		0.1288
40		H		6.2114		-4.1786		1.0338		H		1		UNL1		0.1583
41		H		6.1791		-4.2969		-0.7334		H		1		UNL1		0.1589
42		H		4.8147		-4.8876		0.2185		H		1		UNL1		0.1675
43		H		4.7369		-2.7367		-2.0752		H		1		UNL1		0.1288
44		H		3.6320		-0.5121		-2.1987		H		1		UNL1		0.1408
@<TRIPOS>BOND
1		44		26		1
2		43		25		1
3		26		25		ar
4		26		20		ar
5		25		23		ar
6		31		2		1
7		32		2		1
8		41		24		1
9		3		2		1
10		3		33		1
11		3		4		1
12		2		1		1
13		4		27		ar
14		4		5		ar
15		27		18		ar
16		5		6		ar
17		35		9		1
18		18		19		1
19		18		17		ar
20		19		20		1
21		36		10		1
22		6		17		ar
23		6		7		1
24		9		10		ar
25		9		8		ar
26		20		21		ar
27		10		11		ar
28		7		8		1
29		7		34		1
30		8		15		ar
31		11		12		1
32		11		14		ar
33		12		13		3
34		23		24		1
35		23		22		ar
36		15		14		ar
37		15		16		1
38		14		37		1
39		24		42		1
40		24		40		1
41		30		1		1
42		1		28		1
43		1		29		1
44		21		22		ar
45		21		38		1
46		22		39		1

