@<TRIPOS>MOLECULE
XYZ-2009-CB-561-8E
 44 47 0 0 0
SMALL
MULLIKEN_CHARGES
****
Gaussian 16 #p B3LYP/6-31G* opt
@<TRIPOS>ATOM
1		C		-1.3300		5.5434		0.2263		C.3		1		UNL1		-0.2925
2		N		-1.9549		4.2355		0.1312		N.3		1		UNL1		-0.6251
3		C		-1.2964		3.0687		0.2903		C.ar		1		UNL1		0.7011
4		N		-2.0483		1.9408		0.2320		N.ar		1		UNL1		-0.5705
5		C		-1.3468		0.8218		0.3860		C.ar		1		UNL1		0.7303
6		N		-1.9660		-0.4050		0.3556		N.pl3		1		UNL1		-0.7856
7		C		-3.2969		-0.7628		0.1786		C.ar		1		UNL1		0.3244
8		C		-4.3760		0.1132		-0.0257		C.ar		1		UNL1		-0.1580
9		C		-5.6644		-0.3861		-0.1887		C.ar		1		UNL1		-0.1489
10		C		-5.9176		-1.7662		-0.1539		C.ar		1		UNL1		0.1336
11		C		-7.2474		-2.2672		-0.3223		C.1		1		UNL1		0.2308
12		N		-8.3302		-2.6715		-0.4591		N.1		1		UNL1		-0.4791
13		C		-4.8479		-2.6575		0.0491		C.ar		1		UNL1		-0.2149
14		C		-3.5809		-2.1424		0.2084		C.ar		1		UNL1		0.3157
15		F		-2.5380		-2.9868		0.4053		F		1		UNL1		-0.2971
16		N		-0.0128		0.7357		0.5835		N.ar		1		UNL1		-0.5522
17		C		0.5896		1.9170		0.6073		C.ar		1		UNL1		0.6868
18		O		1.9300		1.9603		0.7967		O.3		1		UNL1		-0.5335
19		C		2.6429		0.7727		0.9004		C.ar		1		UNL1		0.3277
20		C		3.0180		0.3510		2.1942		C.ar		1		UNL1		-0.1505
21		C		3.8066		-0.7615		2.3516		C.ar		1		UNL1		-0.2038
22		C		4.2548		-1.5015		1.2263		C.ar		1		UNL1		0.1543
23		C		5.0701		-2.6551		1.3744		C.ar		1		UNL1		-0.1968
24		C		5.5016		-3.3652		0.2783		C.ar		1		UNL1		-0.1303
25		C		5.1330		-2.9470		-1.0220		C.ar		1		UNL1		-0.1334
26		C		4.3446		-1.8333		-1.2052		C.ar		1		UNL1		-0.1873
27		C		3.8821		-1.0777		-0.0949		C.ar		1		UNL1		0.0872
28		C		3.0657		0.0849		-0.2163		C.ar		1		UNL1		-0.0006
29		BR		2.5315		0.7214		-1.9307		Br		1		UNL1		-0.1049
30		N		0.0332		3.1169		0.4810		N.ar		1		UNL1		-0.5321
31		H		-1.9983		6.2814		-0.2238		H		1		UNL1		0.1572
32		H		-0.3807		5.5396		-0.3129		H		1		UNL1		0.1983
33		H		-1.1310		5.8296		1.2669		H		1		UNL1		0.1692
34		H		-2.9583		4.1618		0.0530		H		1		UNL1		0.3401
35		H		-1.3180		-1.1730		0.4796		H		1		UNL1		0.3628
36		H		-4.1820		1.1754		-0.0534		H		1		UNL1		0.1846
37		H		-6.4883		0.3020		-0.3459		H		1		UNL1		0.1594
38		H		-4.9994		-3.7303		0.0825		H		1		UNL1		0.1741
39		H		2.6717		0.9312		3.0431		H		1		UNL1		0.1508
40		H		4.0981		-1.0891		3.3457		H		1		UNL1		0.1420
41		H		5.3469		-2.9667		2.3787		H		1		UNL1		0.1359
42		H		6.1242		-4.2460		0.4073		H		1		UNL1		0.1363
43		H		5.4752		-3.5107		-1.8854		H		1		UNL1		0.1376
44		H		4.0646		-1.5181		-2.2039		H		1		UNL1		0.1567
@<TRIPOS>BOND
1		44		26		1
2		29		28		1
3		43		25		1
4		26		25		ar
5		26		27		ar
6		25		24		ar
7		12		11		3
8		37		9		1
9		11		10		1
10		32		1		1
11		31		1		1
12		28		27		ar
13		28		19		ar
14		9		10		ar
15		9		8		ar
16		10		13		ar
17		27		22		ar
18		36		8		1
19		8		7		ar
20		13		38		1
21		13		14		ar
22		34		2		1
23		2		1		1
24		2		3		1
25		7		14		ar
26		7		6		1
27		14		15		1
28		1		33		1
29		4		3		ar
30		4		5		ar
31		24		42		1
32		24		23		ar
33		3		30		ar
34		6		5		1
35		6		35		1
36		5		16		ar
37		30		17		ar
38		16		17		ar
39		17		18		1
40		18		19		1
41		19		20		ar
42		22		23		ar
43		22		21		ar
44		23		41		1
45		20		21		ar
46		20		39		1
47		21		40		1

