@<TRIPOS>MOLECULE
XYZ-2009-CB-561-8D
 48 51 0 0 0
SMALL
MULLIKEN_CHARGES
****
Gaussian 16 #p B3LYP/6-31G* opt
@<TRIPOS>ATOM
1		C		1.4163		6.6530		0.7414		C.2		1		UNL1		-0.3373
2		C		0.8201		5.4695		0.8842		C.2		1		UNL1		-0.0530
3		C		0.2977		4.6426		-0.2615		C.3		1		UNL1		-0.1775
4		N		0.9247		3.3270		-0.3058		N.3		1		UNL1		-0.6348
5		C		0.2827		2.1385		-0.2518		C.ar		1		UNL1		0.7045
6		N		-1.0567		2.1193		-0.1868		N.ar		1		UNL1		-0.5783
7		C		-1.5835		0.8840		-0.1397		C.ar		1		UNL1		0.7296
8		N		-2.9552		0.8683		-0.0717		N.pl3		1		UNL1		-0.7823
9		C		-3.8612		-0.1861		-0.0083		C.ar		1		UNL1		0.3210
10		C		-3.5499		-1.5563		0.0001		C.ar		1		UNL1		-0.1634
11		C		-4.5667		-2.5038		0.0674		C.ar		1		UNL1		-0.1504
12		C		-5.9156		-2.1199		0.1278		C.ar		1		UNL1		0.1337
13		C		-6.9521		-3.1043		0.1969		C.1		1		UNL1		0.2312
14		N		-7.7944		-3.9056		0.2531		N.1		1		UNL1		-0.4796
15		C		-6.2435		-0.7517		0.1201		C.ar		1		UNL1		-0.2150
16		C		-5.2225		0.1697		0.0531		C.ar		1		UNL1		0.3132
17		F		-5.5196		1.4943		0.0447		F		1		UNL1		-0.3002
18		N		-0.9085		-0.2699		-0.1548		N.ar		1		UNL1		-0.5466
19		C		0.4176		-0.1004		-0.2201		C.ar		1		UNL1		0.6780
20		O		1.0967		-1.2657		-0.2212		O.3		1		UNL1		-0.5369
21		C		2.4887		-1.2661		-0.3527		C.ar		1		UNL1		0.3546
22		C		3.0792		-0.9259		-1.5918		C.ar		1		UNL1		-0.1346
23		C		4.4415		-1.0329		-1.7379		C.ar		1		UNL1		-0.2099
24		C		5.2645		-1.4833		-0.6692		C.ar		1		UNL1		0.1471
25		C		6.6738		-1.6038		-0.7954		C.ar		1		UNL1		-0.1939
26		C		7.4414		-2.0475		0.2582		C.ar		1		UNL1		-0.1345
27		C		6.8314		-2.3927		1.4889		C.ar		1		UNL1		-0.1360
28		C		5.4671		-2.2885		1.6436		C.ar		1		UNL1		-0.1892
29		C		4.6476		-1.8328		0.5764		C.ar		1		UNL1		0.1275
30		C		3.2378		-1.7125		0.7056		C.ar		1		UNL1		-0.2353
31		N		1.0817		1.0413		-0.2701		N.ar		1		UNL1		-0.5417
32		H		1.7680		7.2242		1.5959		H		1		UNL1		0.1518
33		H		1.5671		7.1019		-0.2386		H		1		UNL1		0.1434
34		H		0.6863		5.0381		1.8761		H		1		UNL1		0.1427
35		H		0.4622		5.1679		-1.2119		H		1		UNL1		0.1559
36		H		-0.7770		4.4674		-0.1612		H		1		UNL1		0.1997
37		H		1.9339		3.2658		-0.3293		H		1		UNL1		0.3438
38		H		-3.3627		1.7946		-0.0681		H		1		UNL1		0.3567
39		H		-2.5123		-1.8550		-0.0465		H		1		UNL1		0.2076
40		H		-4.3125		-3.5584		0.0731		H		1		UNL1		0.1631
41		H		-7.2719		-0.4122		0.1653		H		1		UNL1		0.1728
42		H		2.4487		-0.5882		-2.4071		H		1		UNL1		0.1425
43		H		4.9077		-0.7752		-2.6857		H		1		UNL1		0.1364
44		H		7.1383		-1.3391		-1.7424		H		1		UNL1		0.1315
45		H		8.5189		-2.1353		0.1489		H		1		UNL1		0.1322
46		H		7.4466		-2.7423		2.3136		H		1		UNL1		0.1330
47		H		4.9975		-2.5541		2.5877		H		1		UNL1		0.1335
48		H		2.7484		-1.9785		1.6377		H		1		UNL1		0.1434
@<TRIPOS>BOND
1		43		23		1
2		42		22		1
3		44		25		1
4		23		22		ar
5		23		24		ar
6		22		21		ar
7		35		3		1
8		25		24		ar
9		25		26		ar
10		24		29		ar
11		21		20		1
12		21		30		ar
13		37		4		1
14		4		3		1
15		4		5		1
16		31		5		ar
17		31		19		ar
18		3		36		1
19		3		2		1
20		5		6		ar
21		33		1		1
22		20		19		1
23		19		18		ar
24		6		7		ar
25		18		7		ar
26		7		8		1
27		8		38		1
28		8		9		1
29		39		10		1
30		9		10		ar
31		9		16		ar
32		10		11		ar
33		17		16		1
34		16		15		ar
35		11		40		1
36		11		12		ar
37		15		12		ar
38		15		41		1
39		12		13		1
40		45		26		1
41		13		14		3
42		26		27		ar
43		29		30		ar
44		29		28		ar
45		30		48		1
46		1		2		2
47		1		32		1
48		2		34		1
49		27		28		ar
50		27		46		1
51		28		47		1

