@<TRIPOS>MOLECULE
XYZ-2008-EJMC-1230-9N
 41 44 0 0 0
SMALL
MULLIKEN_CHARGES
****
Gaussian 16 #p B3LYP/6-31G* opt
@<TRIPOS>ATOM
1		N		9.3966		-3.3317		-0.3531		N.1		1		UNL1		-0.4835
2		C		8.5778		-2.5061		-0.2978		C.1		1		UNL1		0.2288
3		C		7.5735		-1.4887		-0.2297		C.ar		1		UNL1		0.1327
4		C		6.2173		-1.8088		-0.4059		C.ar		1		UNL1		-0.1544
5		C		5.2320		-0.8310		-0.3429		C.ar		1		UNL1		-0.1597
6		C		5.5932		0.5062		-0.0984		C.ar		1		UNL1		0.3792
7		N		4.6852		1.5674		-0.0140		N.pl3		1		UNL1		-0.7761
8		C		3.3206		1.6277		-0.1384		C.ar		1		UNL1		0.7216
9		N		2.8138		2.8632		0.0235		N.ar		1		UNL1		-0.5618
10		C		1.4819		2.9254		-0.1051		C.ar		1		UNL1		0.6686
11		N		0.8944		4.1377		0.0145		N.pl3		1		UNL1		-0.7706
12		N		0.6639		1.8794		-0.3650		N.ar		1		UNL1		-0.5234
13		C		1.3097		0.7318		-0.4874		C.ar		1		UNL1		0.6890
14		O		0.6012		-0.3937		-0.7486		O.3		1		UNL1		-0.5344
15		C		-0.7826		-0.3219		-0.8279		C.ar		1		UNL1		0.3312
16		C		-1.3610		-0.2908		-2.1152		C.ar		1		UNL1		-0.1492
17		C		-2.7257		-0.3190		-2.2580		C.ar		1		UNL1		-0.2007
18		C		-3.5722		-0.3795		-1.1199		C.ar		1		UNL1		0.1549
19		C		-4.9854		-0.4074		-1.2572		C.ar		1		UNL1		-0.2259
20		C		-5.7849		-0.4681		-0.1429		C.ar		1		UNL1		0.0838
21		BR		-7.6857		-0.5031		-0.3326		Br		1		UNL1		-0.1218
22		C		-5.2304		-0.5052		1.1558		C.ar		1		UNL1		-0.1507
23		C		-3.8641		-0.4799		1.3139		C.ar		1		UNL1		-0.1880
24		C		-2.9934		-0.4163		0.1935		C.ar		1		UNL1		0.0940
25		C		-1.5727		-0.3887		0.2993		C.ar		1		UNL1		-0.0002
26		BR		-0.7251		-0.4408		2.0028		Br		1		UNL1		-0.0975
27		N		2.6209		0.5148		-0.3963		N.ar		1		UNL1		-0.5400
28		C		6.9532		0.8281		0.0789		C.ar		1		UNL1		-0.2052
29		C		7.9307		-0.1514		0.0149		C.ar		1		UNL1		-0.1404
30		H		5.9332		-2.8393		-0.5944		H		1		UNL1		0.1612
31		H		4.1909		-1.0856		-0.4792		H		1		UNL1		0.2018
32		H		5.0831		2.4786		0.1761		H		1		UNL1		0.3475
33		H		1.4466		4.9152		0.3416		H		1		UNL1		0.3506
34		H		-0.1118		4.1823		0.0647		H		1		UNL1		0.3547
35		H		-0.6987		-0.2506		-2.9736		H		1		UNL1		0.1563
36		H		-3.1743		-0.2961		-3.2470		H		1		UNL1		0.1481
37		H		-5.4227		-0.3803		-2.2499		H		1		UNL1		0.1580
38		H		-5.8853		-0.5537		2.0187		H		1		UNL1		0.1599
39		H		-3.4366		-0.5082		2.3096		H		1		UNL1		0.1658
40		H		7.2407		1.8597		0.2684		H		1		UNL1		0.1372
41		H		8.9744		0.1116		0.1533		H		1		UNL1		0.1586
@<TRIPOS>BOND
1		36		17		1
2		35		16		1
3		17		16		ar
4		17		18		ar
5		37		19		1
6		16		15		ar
7		19		18		ar
8		19		20		ar
9		18		24		ar
10		15		14		1
11		15		25		ar
12		14		13		1
13		30		4		1
14		13		27		ar
15		13		12		ar
16		31		5		1
17		4		5		ar
18		4		3		ar
19		27		8		ar
20		12		10		ar
21		1		2		3
22		5		6		ar
23		21		20		1
24		2		3		1
25		3		29		ar
26		20		22		ar
27		8		7		1
28		8		9		ar
29		10		11		1
30		10		9		ar
31		6		7		1
32		6		28		ar
33		7		32		1
34		11		34		1
35		11		33		1
36		29		28		ar
37		29		41		1
38		28		40		1
39		24		25		ar
40		24		23		ar
41		25		26		1
42		22		23		ar
43		22		38		1
44		23		39		1

