@<TRIPOS>MOLECULE
XYZ-2008-EJMC-1230-9H
 44 47 0 0 0
SMALL
MULLIKEN_CHARGES
****
Gaussian 16 #p B3LYP/6-31G* opt
@<TRIPOS>ATOM
1		C		0.6546		3.3950		-0.5348		C.3		1		UNL1		-0.2896
2		N		-0.6221		2.7138		-0.4029		N.3		1		UNL1		-0.6262
3		C		-0.7539		1.4482		0.0420		C.ar		1		UNL1		0.7009
4		N		-2.0081		0.9425		0.0827		N.ar		1		UNL1		-0.5667
5		C		-2.0652		-0.3170		0.5137		C.ar		1		UNL1		0.7210
6		N		-3.2690		-0.9725		0.6182		N.pl3		1		UNL1		-0.7783
7		C		-4.5824		-0.5842		0.3500		C.ar		1		UNL1		0.3824
8		C		-5.5858		-1.5482		0.5755		C.ar		1		UNL1		-0.2043
9		C		-6.9192		-1.2569		0.3398		C.ar		1		UNL1		-0.1405
10		C		-7.2920		0.0144		-0.1312		C.ar		1		UNL1		0.1318
11		C		-8.6672		0.3240		-0.3770		C.1		1		UNL1		0.2275
12		N		-9.7861		0.5762		-0.5767		N.1		1		UNL1		-0.4843
13		C		-6.2921		0.9749		-0.3562		C.ar		1		UNL1		-0.1532
14		C		-4.9532		0.6882		-0.1215		C.ar		1		UNL1		-0.1545
15		N		-1.0162		-1.0845		0.8832		N.ar		1		UNL1		-0.5512
16		C		0.1464		-0.4551		0.7930		C.ar		1		UNL1		0.6875
17		O		1.2057		-1.2146		1.1651		O.3		1		UNL1		-0.5345
18		C		2.4863		-0.6820		1.1038		C.ar		1		UNL1		0.3289
19		C		3.0792		-0.2917		2.3243		C.ar		1		UNL1		-0.1518
20		C		4.3788		0.1491		2.3478		C.ar		1		UNL1		-0.2038
21		C		5.1448		0.2204		1.1550		C.ar		1		UNL1		0.1538
22		C		6.4903		0.6755		1.1638		C.ar		1		UNL1		-0.1970
23		C		7.2262		0.7390		0.0034		C.ar		1		UNL1		-0.1308
24		C		6.6417		0.3461		-1.2236		C.ar		1		UNL1		-0.1337
25		C		5.3405		-0.1010		-1.2714		C.ar		1		UNL1		-0.1885
26		C		4.5529		-0.1789		-0.0917		C.ar		1		UNL1		0.0867
27		C		3.2020		-0.6350		-0.0731		C.ar		1		UNL1		0.0010
28		BR		2.3455		-1.1889		-1.6821		Br		1		UNL1		-0.1057
29		N		0.3672		0.7953		0.4024		N.ar		1		UNL1		-0.5347
30		H		0.4868		4.3412		-1.0537		H		1		UNL1		0.1559
31		H		1.1052		3.5993		0.4431		H		1		UNL1		0.1747
32		H		1.3568		2.7865		-1.1117		H		1		UNL1		0.1905
33		H		-1.4786		3.1833		-0.6555		H		1		UNL1		0.3418
34		H		-3.1420		-1.9200		0.9525		H		1		UNL1		0.3521
35		H		-5.3091		-2.5348		0.9396		H		1		UNL1		0.1407
36		H		-7.6799		-2.0099		0.5182		H		1		UNL1		0.1591
37		H		-6.5718		1.9585		-0.7201		H		1		UNL1		0.1561
38		H		-4.1882		1.4302		-0.2967		H		1		UNL1		0.1782
39		H		2.4817		-0.3587		3.2276		H		1		UNL1		0.1516
40		H		4.8379		0.4490		3.2859		H		1		UNL1		0.1418
41		H		6.9286		0.9739		2.1130		H		1		UNL1		0.1358
42		H		8.2543		1.0891		0.0257		H		1		UNL1		0.1361
43		H		7.2259		0.3972		-2.1383		H		1		UNL1		0.1373
44		H		4.8983		-0.4008		-2.2146		H		1		UNL1		0.1563
@<TRIPOS>BOND
1		44		25		1
2		43		24		1
3		28		27		1
4		25		24		ar
5		25		26		ar
6		24		23		ar
7		32		1		1
8		30		1		1
9		37		13		1
10		33		2		1
11		12		11		3
12		1		2		1
13		1		31		1
14		2		3		1
15		11		10		1
16		13		10		ar
17		13		14		ar
18		38		14		1
19		10		9		ar
20		14		7		ar
21		26		27		ar
22		26		21		ar
23		27		18		ar
24		23		42		1
25		23		22		ar
26		3		4		ar
27		3		29		ar
28		4		5		ar
29		9		36		1
30		9		8		ar
31		7		8		ar
32		7		6		1
33		29		16		ar
34		5		6		1
35		5		15		ar
36		8		35		1
37		6		34		1
38		16		15		ar
39		16		17		1
40		18		17		1
41		18		19		ar
42		21		22		ar
43		21		20		ar
44		22		41		1
45		19		20		ar
46		19		39		1
47		20		40		1

