@<TRIPOS>MOLECULE
XYZ-2008-EJMC-1230-9J
 50 53 0 0 0
SMALL
MULLIKEN_CHARGES
****
Gaussian 16 #p B3LYP/6-31G* opt
@<TRIPOS>ATOM
1		C		0.9304		6.8420		0.6223		C.3		1		UNL1		-0.4495
2		C		1.4445		5.4020		0.7120		C.3		1		UNL1		-0.2523
3		C		1.8046		4.8313		-0.6669		C.3		1		UNL1		-0.1225
4		N		2.3175		3.4671		-0.6206		N.3		1		UNL1		-0.6364
5		C		1.5507		2.3556		-0.6340		C.ar		1		UNL1		0.7065
6		N		2.2030		1.1765		-0.4794		N.ar		1		UNL1		-0.5701
7		C		1.4086		0.1111		-0.5238		C.ar		1		UNL1		0.7256
8		N		1.9160		-1.1581		-0.3809		N.pl3		1		UNL1		-0.7798
9		C		3.2111		-1.6392		-0.1811		C.ar		1		UNL1		0.3825
10		C		3.3557		-3.0359		-0.0601		C.ar		1		UNL1		-0.2045
11		C		4.6013		-3.6083		0.1376		C.ar		1		UNL1		-0.1405
12		C		5.7465		-2.7966		0.2206		C.ar		1		UNL1		0.1320
13		C		7.0371		-3.3800		0.4246		C.1		1		UNL1		0.2277
14		N		8.0870		-3.8549		0.5904		N.1		1		UNL1		-0.4841
15		C		5.6022		-1.4047		0.0999		C.ar		1		UNL1		-0.1533
16		C		4.3553		-0.8252		-0.0984		C.ar		1		UNL1		-0.1545
17		N		0.0678		0.1236		-0.7052		N.ar		1		UNL1		-0.5551
18		C		-0.4313		1.3455		-0.8302		C.ar		1		UNL1		0.6848
19		O		-1.7672		1.4865		-1.0145		O.3		1		UNL1		-0.5347
20		C		-2.5777		0.3595		-1.0133		C.ar		1		UNL1		0.3291
21		C		-3.0013		-0.1378		-2.2648		C.ar		1		UNL1		-0.1508
22		C		-3.8824		-1.1887		-2.3237		C.ar		1		UNL1		-0.2044
23		C		-4.3794		-1.7897		-1.1376		C.ar		1		UNL1		0.1537
24		C		-5.2909		-2.8781		-1.1834		C.ar		1		UNL1		-0.1972
25		C		-5.7692		-3.4530		-0.0290		C.ar		1		UNL1		-0.1307
26		C		-5.3526		-2.9585		1.2293		C.ar		1		UNL1		-0.1337
27		C		-4.4709		-1.9044		1.3137		C.ar		1		UNL1		-0.1879
28		C		-3.9579		-1.2882		0.1411		C.ar		1		UNL1		0.0866
29		C		-3.0450		-0.1931		0.1595		C.ar		1		UNL1		-0.0016
30		BR		-2.4397		0.5383		1.8114		Br		1		UNL1		-0.1054
31		N		0.2243		2.4996		-0.8073		N.ar		1		UNL1		-0.5344
32		H		0.6763		7.2318		1.6136		H		1		UNL1		0.1521
33		H		1.6831		7.5102		0.1853		H		1		UNL1		0.1420
34		H		0.0296		6.9027		0.0001		H		1		UNL1		0.1535
35		H		0.6822		4.7569		1.1647		H		1		UNL1		0.1622
36		H		2.3274		5.3583		1.3644		H		1		UNL1		0.1306
37		H		0.9226		4.8292		-1.3119		H		1		UNL1		0.1875
38		H		2.5689		5.4528		-1.1487		H		1		UNL1		0.1439
39		H		3.2928		3.3108		-0.4082		H		1		UNL1		0.3361
40		H		1.1826		-1.8549		-0.4254		H		1		UNL1		0.3517
41		H		2.4768		-3.6733		-0.1222		H		1		UNL1		0.1403
42		H		4.6964		-4.6854		0.2292		H		1		UNL1		0.1590
43		H		6.4816		-0.7714		0.1627		H		1		UNL1		0.1566
44		H		4.2494		0.2457		-0.1901		H		1		UNL1		0.1793
45		H		-2.6167		0.3368		-3.1614		H		1		UNL1		0.1513
46		H		-4.2115		-1.5735		-3.2852		H		1		UNL1		0.1420
47		H		-5.6042		-3.2491		-2.1563		H		1		UNL1		0.1359
48		H		-6.4658		-4.2850		-0.0798		H		1		UNL1		0.1362
49		H		-5.7324		-3.4150		2.1391		H		1		UNL1		0.1376
50		H		-4.1551		-1.5299		2.2807		H		1		UNL1		0.1567
@<TRIPOS>BOND
1		46		22		1
2		45		21		1
3		22		21		ar
4		22		23		ar
5		21		20		ar
6		47		24		1
7		37		3		1
8		24		23		ar
9		24		25		ar
10		38		3		1
11		23		28		ar
12		19		20		1
13		19		18		1
14		20		29		ar
15		18		31		ar
16		18		17		ar
17		31		5		ar
18		17		7		ar
19		3		4		1
20		3		2		1
21		5		4		1
22		5		6		ar
23		4		39		1
24		7		6		ar
25		7		8		1
26		40		8		1
27		8		9		1
28		44		16		1
29		9		16		ar
30		9		10		ar
31		41		10		1
32		16		15		ar
33		48		25		1
34		10		11		ar
35		25		26		ar
36		34		1		1
37		15		43		1
38		15		12		ar
39		11		12		ar
40		11		42		1
41		28		29		ar
42		28		27		ar
43		29		30		1
44		33		1		1
45		12		13		1
46		13		14		3
47		1		2		1
48		1		32		1
49		2		35		1
50		2		36		1
51		26		27		ar
52		26		49		1
53		27		50		1

