@<TRIPOS>MOLECULE
YSQ-2012-CMC-152-18
 44 46 0 0 0
SMALL
MULLIKEN_CHARGES
****
Gaussian 16 #p B3LYP/def2SVP opt
@<TRIPOS>ATOM
1		O		3.4324		-2.8521		1.1420		O.2		1		UNL1		-0.1989
2		C		2.5506		-2.1094		0.7639		C.ar		1		UNL1		0.1927
3		N		1.2021		-2.3971		1.0763		N.ar		1		UNL1		-0.0802
4		C		0.1487		-1.6253		0.6906		C.ar		1		UNL1		0.0431
5		S		-1.4349		-2.2052		1.2287		S.3		1		UNL1		-0.0083
6		C		-2.5459		-0.9274		0.5310		C.3		1		UNL1		-0.0868
7		C		-2.9162		-1.1547		-0.9331		C.3		1		UNL1		0.0721
8		C		-3.8952		-0.0923		-1.4767		C.3		1		UNL1		0.0915
9		C		-5.2643		-0.1067		-0.8276		C.ar		1		UNL1		-0.0330
10		C		-5.6285		0.8517		0.1314		C.ar		1		UNL1		-0.0161
11		C		-6.8858		0.8184		0.7438		C.ar		1		UNL1		0.0220
12		C		-7.8048		-0.1781		0.4056		C.ar		1		UNL1		0.0179
13		C		-7.4578		-1.1385		-0.5505		C.ar		1		UNL1		0.0224
14		C		-6.2011		-1.1009		-1.1591		C.ar		1		UNL1		-0.0163
15		N		0.2968		-0.5431		-0.0090		N.ar		1		UNL1		-0.1363
16		C		1.5645		-0.1438		-0.3692		C.ar		1		UNL1		-0.0522
17		C		1.5927		1.1430		-1.1669		C.3		1		UNL1		0.2482
18		C		1.1099		2.3408		-0.3666		C.ar		1		UNL1		-0.0300
19		C		-0.1572		2.8978		-0.5916		C.ar		1		UNL1		-0.0081
20		C		-0.5986		3.9985		0.1497		C.ar		1		UNL1		0.0160
21		C		0.2222		4.5561		1.1335		C.ar		1		UNL1		0.0202
22		C		1.4875		4.0078		1.3680		C.ar		1		UNL1		0.0212
23		C		1.9270		2.9104		0.6237		C.ar		1		UNL1		-0.0110
24		C		2.6765		-0.8764		-0.0159		C.ar		1		UNL1		-0.2825
25		I		4.6711		-0.3724		-0.5178		I		1		UNL1		0.0787
26		H		1.0595		-3.2415		1.6275		H		1		UNL1		0.1400
27		H		-2.0453		0.0407		0.6751		H		1		UNL1		0.0671
28		H		-3.4300		-0.9646		1.1853		H		1		UNL1		0.0608
29		H		-3.3564		-2.1593		-1.0503		H		1		UNL1		0.0062
30		H		-1.9956		-1.1334		-1.5368		H		1		UNL1		0.0155
31		H		-4.0058		-0.2592		-2.5614		H		1		UNL1		0.0090
32		H		-3.4431		0.9072		-1.3617		H		1		UNL1		-0.0018
33		H		-4.9190		1.6405		0.3986		H		1		UNL1		-0.0270
34		H		-7.1482		1.5772		1.4859		H		1		UNL1		-0.0157
35		H		-8.7887		-0.2046		0.8807		H		1		UNL1		-0.0142
36		H		-8.1724		-1.9181		-0.8275		H		1		UNL1		-0.0152
37		H		-5.9441		-1.8528		-1.9117		H		1		UNL1		-0.0262
38		H		2.6065		1.3247		-1.5461		H		1		UNL1		0.0073
39		H		0.9306		0.9974		-2.0352		H		1		UNL1		0.0034
40		H		-0.8027		2.4676		-1.3623		H		1		UNL1		-0.0283
41		H		-1.5869		4.4236		-0.0451		H		1		UNL1		-0.0192
42		H		-0.1203		5.4171		1.7132		H		1		UNL1		-0.0156
43		H		2.1384		4.4398		2.1327		H		1		UNL1		-0.0145
44		H		2.9193		2.4906		0.8113		H		1		UNL1		-0.0179
@<TRIPOS>BOND
1		31		8		1
2		39		17		1
3		37		14		1
4		38		17		1
5		30		7		1
6		8		32		1
7		8		7		1
8		8		9		1
9		40		19		1
10		17		16		1
11		17		18		1
12		14		9		ar
13		14		13		ar
14		29		7		1
15		7		6		1
16		9		10		ar
17		36		13		1
18		19		18		ar
19		19		20		ar
20		13		12		ar
21		25		24		1
22		16		24		ar
23		16		15		ar
24		18		23		ar
25		41		20		1
26		24		2		ar
27		15		4		ar
28		10		33		1
29		10		11		ar
30		20		21		ar
31		12		11		ar
32		12		35		1
33		6		27		1
34		6		28		1
35		6		5		1
36		23		44		1
37		23		22		ar
38		4		3		ar
39		4		5		1
40		11		34		1
41		2		3		ar
42		2		1		2
43		3		26		1
44		21		22		ar
45		21		42		1
46		22		43		1

