@<TRIPOS>MOLECULE
YSQ-2012-CMC-152-14
 38 39 0 0 0
SMALL
MULLIKEN_CHARGES
****
Gaussian 16 #p B3LYP/6-31G* opt
@<TRIPOS>ATOM
1		C		-0.6926		-2.5570		-1.3171		C.3		1		UNL1		-0.4497
2		C		-1.8235		-2.5109		-0.2802		C.3		1		UNL1		0.0454
3		C		-1.3473		-2.8752		1.1333		C.3		1		UNL1		-0.4516
4		N		-2.5914		-1.2335		-0.3363		N.pl3		1		UNL1		-0.4688
5		C		-3.9367		-1.2524		-0.8991		C.3		1		UNL1		-0.3454
6		C		-2.0147		-0.0338		-0.0251		C.ar		1		UNL1		0.7973
7		N		-0.7901		0.0221		0.4631		N.ar		1		UNL1		-0.5876
8		C		-0.2883		1.2541		0.7715		C.ar		1		UNL1		0.3458
9		C		1.1062		1.2356		1.3760		C.3		1		UNL1		-0.4130
10		C		2.1253		0.5280		0.5130		C.ar		1		UNL1		0.0206
11		C		2.7444		1.1637		-0.5654		C.ar		1		UNL1		0.3384
12		F		2.4119		2.4495		-0.8120		F		1		UNL1		-0.2908
13		C		3.6831		0.5487		-1.3848		C.ar		1		UNL1		-0.1943
14		C		4.0254		-0.7786		-1.1232		C.ar		1		UNL1		-0.1354
15		C		3.4378		-1.4647		-0.0599		C.ar		1		UNL1		-0.1948
16		C		2.5063		-0.7972		0.7276		C.ar		1		UNL1		0.3402
17		F		1.9497		-1.4640		1.7653		F		1		UNL1		-0.2929
18		C		-0.9622		2.4345		0.5942		C.ar		1		UNL1		-0.2835
19		C		-2.2970		2.4232		0.0583		C.ar		1		UNL1		0.6112
20		O		-3.0437		3.3677		-0.1683		O.2		1		UNL1		-0.5397
21		N		-2.7533		1.1050		-0.2270		N.ar		1		UNL1		-0.7189
22		H		-0.2356		-3.5534		-1.3185		H		1		UNL1		0.1427
23		H		-1.0759		-2.3591		-2.3247		H		1		UNL1		0.1383
24		H		0.0799		-1.8219		-1.0834		H		1		UNL1		0.1912
25		H		-2.5631		-3.2643		-0.5693		H		1		UNL1		0.1297
26		H		-1.0159		-3.9206		1.1373		H		1		UNL1		0.1373
27		H		-2.1652		-2.7770		1.8555		H		1		UNL1		0.1404
28		H		-0.5174		-2.2436		1.4502		H		1		UNL1		0.1981
29		H		-3.9921		-0.7547		-1.8787		H		1		UNL1		0.1697
30		H		-4.6634		-0.7801		-0.2245		H		1		UNL1		0.1723
31		H		-4.2493		-2.2876		-1.0358		H		1		UNL1		0.1790
32		H		1.4318		2.2624		1.5629		H		1		UNL1		0.1677
33		H		1.0499		0.7208		2.3408		H		1		UNL1		0.1791
34		H		4.1249		1.1076		-2.2024		H		1		UNL1		0.1484
35		H		4.7558		-1.2806		-1.7505		H		1		UNL1		0.1446
36		H		3.6883		-2.4946		0.1695		H		1		UNL1		0.1467
37		H		-0.5248		3.3937		0.8414		H		1		UNL1		0.1426
38		H		-3.6865		1.0793		-0.6163		H		1		UNL1		0.3398
@<TRIPOS>BOND
1		23		1		1
2		34		13		1
3		29		5		1
4		35		14		1
5		13		14		ar
6		13		11		ar
7		22		1		1
8		1		24		1
9		1		2		1
10		14		15		ar
11		31		5		1
12		5		4		1
13		5		30		1
14		12		11		1
15		38		21		1
16		25		2		1
17		11		10		ar
18		4		2		1
19		4		6		1
20		2		3		1
21		21		6		ar
22		21		19		ar
23		20		19		2
24		15		36		1
25		15		16		ar
26		6		7		ar
27		19		18		ar
28		7		8		ar
29		10		16		ar
30		10		9		1
31		18		8		ar
32		18		37		1
33		16		17		1
34		8		9		1
35		3		26		1
36		3		28		1
37		3		27		1
38		9		32		1
39		9		33		1

