@<TRIPOS>MOLECULE
YSQ-2012-CMC-152-23
 33 34 0 0 0
SMALL
MULLIKEN_CHARGES
****
Gaussian 16 #p B3LYP/6-31G* opt
@<TRIPOS>ATOM
1		C		4.0760		2.7760		-0.2062		C.3		1		UNL1		-0.6347
2		S		2.3011		2.5539		-0.5866		S.3		1		UNL1		0.1848
3		C		2.0265		0.8082		-0.3348		C.ar		1		UNL1		0.3117
4		N		0.7913		0.4345		-0.3628		N.ar		1		UNL1		-0.5347
5		C		0.5402		-0.9416		-0.2706		C.ar		1		UNL1		0.1594
6		C		-0.8710		-1.3572		-0.5997		C.2		1		UNL1		0.3486
7		O		-1.0693		-2.4346		-1.1560		O.2		1		UNL1		-0.4846
8		C		-2.0378		-0.4842		-0.2465		C.ar		1		UNL1		0.0733
9		C		-1.9745		0.6078		0.6357		C.ar		1		UNL1		-0.1477
10		C		-3.1246		1.3205		0.9678		C.ar		1		UNL1		-0.2109
11		C		-4.3362		0.9395		0.4028		C.ar		1		UNL1		0.3899
12		F		-5.4492		1.6326		0.7159		F		1		UNL1		-0.2941
13		C		-4.4378		-0.1353		-0.4761		C.ar		1		UNL1		-0.2024
14		C		-3.2847		-0.8451		-0.7880		C.ar		1		UNL1		-0.1568
15		C		1.4937		-1.8579		0.0535		C.ar		1		UNL1		0.1087
16		C		1.3118		-3.3474		0.1649		C.3		1		UNL1		-0.5076
17		C		2.8843		-1.3598		0.4045		C.ar		1		UNL1		0.0620
18		N		3.1912		-1.2898		1.8431		N.3		1		UNL1		-0.7014
19		N		3.0849		-0.0450		-0.2020		N.ar		1		UNL1		-0.5673
20		H		4.7223		2.2882		-0.9421		H		1		UNL1		0.1906
21		H		4.3217		2.4417		0.8060		H		1		UNL1		0.1954
22		H		4.2511		3.8535		-0.2629		H		1		UNL1		0.2032
23		H		-1.0219		0.9122		1.0486		H		1		UNL1		0.1642
24		H		-3.0932		2.1649		1.6486		H		1		UNL1		0.1468
25		H		-5.4042		-0.3984		-0.8936		H		1		UNL1		0.1480
26		H		-3.3259		-1.6987		-1.4558		H		1		UNL1		0.1664
27		H		1.9076		-3.7459		0.9967		H		1		UNL1		0.1243
28		H		0.2708		-3.6372		0.3037		H		1		UNL1		0.1893
29		H		1.6585		-3.8476		-0.7504		H		1		UNL1		0.1712
30		H		3.6350		-2.0357		-0.0253		H		1		UNL1		0.1532
31		H		2.3782		-0.9483		2.3559		H		1		UNL1		0.3057
32		H		3.4086		-2.2148		2.2092		H		1		UNL1		0.3068
33		H		4.0029		0.3466		-0.0405		H		1		UNL1		0.3387
@<TRIPOS>BOND
1		26		14		1
2		7		6		2
3		20		1		1
4		25		13		1
5		14		13		ar
6		14		8		ar
7		29		16		1
8		6		5		1
9		6		8		1
10		2		3		1
11		2		1		1
12		13		11		ar
13		4		3		ar
14		4		5		ar
15		3		19		ar
16		5		15		ar
17		22		1		1
18		8		9		ar
19		1		21		1
20		19		33		1
21		19		17		ar
22		30		17		1
23		15		16		1
24		15		17		ar
25		16		28		1
26		16		27		1
27		11		12		1
28		11		10		ar
29		17		18		1
30		9		10		ar
31		9		23		1
32		10		24		1
33		18		32		1
34		18		31		1

