@<TRIPOS>MOLECULE
YSQ-2012-CMC-152-MC-1047
 44 46 0 0 0
SMALL
MULLIKEN_CHARGES
****
Gaussian 16 #p B3LYP/6-31G* opt
@<TRIPOS>ATOM
1		C		-2.3777		2.3070		0.4771		C.3		1		UNL1		-0.5392
2		C		-0.9848		1.8235		0.1732		C.ar		1		UNL1		0.0460
3		C		-0.5007		0.5498		0.3537		C.ar		1		UNL1		0.2414
4		C		-1.3046		-0.6289		0.9178		C.3		1		UNL1		-0.2182
5		C		-1.3621		-0.5593		2.4583		C.3		1		UNL1		-0.4536
6		C		-2.6236		-0.8812		0.1914		C.ar		1		UNL1		0.0113
7		C		-2.5768		-1.3787		-1.1191		C.ar		1		UNL1		0.3423
8		F		-1.3570		-1.5645		-1.6713		F		1		UNL1		-0.2910
9		C		-3.6931		-1.6964		-1.8797		C.ar		1		UNL1		-0.1934
10		C		-4.9552		-1.5150		-1.3137		C.ar		1		UNL1		-0.1345
11		C		-5.0723		-1.0218		-0.0166		C.ar		1		UNL1		-0.1929
12		C		-3.9166		-0.7202		0.6975		C.ar		1		UNL1		0.3268
13		F		-4.0819		-0.2235		1.9481		F		1		UNL1		-0.2975
14		N		0.8093		0.1902		0.0865		N.ar		1		UNL1		-0.5232
15		C		1.6125		1.0916		-0.3895		C.ar		1		UNL1		0.3309
16		S		3.3071		0.7429		-0.7958		S.3		1		UNL1		0.1289
17		C		3.4313		-1.0505		-0.3275		C.3		1		UNL1		-0.2453
18		C		3.6153		-1.2596		1.1830		C.3		1		UNL1		-0.2639
19		C		5.1094		-0.9734		1.4472		C.3		1		UNL1		-0.2762
20		C		5.8443		-1.2850		0.1088		C.3		1		UNL1		-0.2761
21		C		4.7337		-1.6223		-0.9201		C.3		1		UNL1		-0.2944
22		N		1.2141		2.3718		-0.6317		N.ar		1		UNL1		-0.6505
23		C		-0.0929		2.8394		-0.3777		C.ar		1		UNL1		0.5768
24		O		-0.3746		4.0071		-0.6203		O.2		1		UNL1		-0.5241
25		H		-2.8840		1.7028		1.2290		H		1		UNL1		0.1635
26		H		-2.3293		3.3422		0.8272		H		1		UNL1		0.1808
27		H		-3.0003		2.3140		-0.4274		H		1		UNL1		0.1699
28		H		-0.6797		-1.4942		0.6764		H		1		UNL1		0.1746
29		H		-0.3366		-0.5663		2.8418		H		1		UNL1		0.1534
30		H		-1.8868		-1.4272		2.8699		H		1		UNL1		0.1537
31		H		-1.8557		0.3419		2.8255		H		1		UNL1		0.1659
32		H		-3.5593		-2.0772		-2.8862		H		1		UNL1		0.1497
33		H		-5.8464		-1.7546		-1.8855		H		1		UNL1		0.1471
34		H		-6.0356		-0.8618		0.4552		H		1		UNL1		0.1498
35		H		2.5262		-1.5173		-0.7185		H		1		UNL1		0.1982
36		H		3.3843		-2.3128		1.3961		H		1		UNL1		0.1434
37		H		2.9341		-0.6526		1.7837		H		1		UNL1		0.1643
38		H		5.4926		-1.5691		2.2817		H		1		UNL1		0.1414
39		H		5.2478		0.0783		1.7182		H		1		UNL1		0.1544
40		H		6.4287		-0.4192		-0.2201		H		1		UNL1		0.1499
41		H		6.5485		-2.1171		0.2099		H		1		UNL1		0.1436
42		H		4.9498		-1.2592		-1.9297		H		1		UNL1		0.1601
43		H		4.6032		-2.7091		-0.9940		H		1		UNL1		0.1535
44		H		1.8523		3.0605		-1.0172		H		1		UNL1		0.3525
@<TRIPOS>BOND
1		32		9		1
2		42		21		1
3		33		10		1
4		9		10		ar
5		9		7		ar
6		8		7		1
7		10		11		ar
8		7		6		ar
9		44		22		1
10		43		21		1
11		21		17		1
12		21		20		1
13		16		15		1
14		16		17		1
15		35		17		1
16		22		15		ar
17		22		23		ar
18		24		23		2
19		27		1		1
20		15		14		ar
21		23		2		ar
22		17		18		1
23		40		20		1
24		11		34		1
25		11		12		ar
26		14		3		ar
27		20		41		1
28		20		19		1
29		2		3		ar
30		2		1		1
31		6		12		ar
32		6		4		1
33		3		4		1
34		1		26		1
35		1		25		1
36		28		4		1
37		12		13		1
38		4		5		1
39		18		36		1
40		18		19		1
41		18		37		1
42		19		39		1
43		19		38		1
44		5		31		1
45		5		29		1
46		5		30		1

