@<TRIPOS>MOLECULE
YSQ-2012-CMC-152-25
 59 62 0 0 0
SMALL
MULLIKEN_CHARGES
****
Gaussian 16 #p B3LYP/6-31G* opt
@<TRIPOS>ATOM
1		C		-0.8025		3.3434		3.1133		C.3		1		UNL1		-0.4385
2		C		-1.1692		3.4069		1.6180		C.3		1		UNL1		-0.3407
3		C		-0.1299		2.7659		0.7236		C.ar		1		UNL1		0.0698
4		C		-0.1542		1.4822		0.2863		C.ar		1		UNL1		0.2410
5		C		-1.2357		0.4691		0.5894		C.3		1		UNL1		-0.3274
6		C		-1.9401		-0.0806		-0.6849		C.3		1		UNL1		-0.1893
7		C		-2.7828		0.9745		-1.4311		C.3		1		UNL1		-0.2725
8		C		-4.0684		1.4092		-0.6847		C.3		1		UNL1		-0.2699
9		C		-4.6086		0.3595		0.3271		C.3		1		UNL1		-0.3573
10		C		-4.1403		-1.0572		0.0711		C.ar		1		UNL1		0.1305
11		C		-4.9733		-2.1556		0.3104		C.ar		1		UNL1		-0.1952
12		C		-4.5107		-3.4594		0.1290		C.ar		1		UNL1		-0.1278
13		C		-3.2018		-3.6745		-0.3056		C.ar		1		UNL1		-0.1370
14		C		-2.3670		-2.5856		-0.5620		C.ar		1		UNL1		-0.2202
15		C		-2.8232		-1.2753		-0.3736		C.ar		1		UNL1		0.1122
16		N		0.8773		0.9302		-0.4993		N.ar		1		UNL1		-0.5224
17		C		1.9369		1.6387		-0.6654		C.ar		1		UNL1		0.3266
18		S		3.3293		0.9912		-1.5829		S.3		1		UNL1		0.1256
19		C		2.6191		-0.5701		-2.2301		C.3		1		UNL1		-0.5228
20		C		2.0361		-1.6131		-1.2616		C.2		1		UNL1		0.4507
21		O		1.0015		-2.1652		-1.6009		O.2		1		UNL1		-0.4566
22		C		2.7530		-2.0276		-0.0180		C.ar		1		UNL1		0.0887
23		C		2.0201		-2.7358		0.9490		C.ar		1		UNL1		-0.1565
24		C		2.6376		-3.1913		2.1092		C.ar		1		UNL1		-0.1349
25		C		4.0027		-2.9648		2.3097		C.ar		1		UNL1		-0.1189
26		C		4.7437		-2.2781		1.3470		C.ar		1		UNL1		-0.1374
27		C		4.1220		-1.8044		0.1916		C.ar		1		UNL1		-0.1606
28		N		2.1444		2.8794		-0.1320		N.ar		1		UNL1		-0.5834
29		C		1.0041		3.6853		0.3033		C.ar		1		UNL1		0.0678
30		N		0.6740		4.6575		-0.7540		N.3		1		UNL1		-0.7012
31		H		0.1725		3.8060		3.3074		H		1		UNL1		0.1447
32		H		-0.7480		2.3046		3.4557		H		1		UNL1		0.1569
33		H		-1.5480		3.8673		3.7233		H		1		UNL1		0.1427
34		H		-2.1506		2.9461		1.4698		H		1		UNL1		0.1571
35		H		-1.2934		4.4602		1.3281		H		1		UNL1		0.1217
36		H		-1.9683		0.8732		1.2929		H		1		UNL1		0.1365
37		H		-0.7558		-0.3812		1.0912		H		1		UNL1		0.1564
38		H		-1.1383		-0.4130		-1.3525		H		1		UNL1		0.1731
39		H		-3.0617		0.5357		-2.3967		H		1		UNL1		0.1410
40		H		-2.1683		1.8546		-1.6571		H		1		UNL1		0.1253
41		H		-4.8437		1.6302		-1.4275		H		1		UNL1		0.1389
42		H		-3.8944		2.3498		-0.1486		H		1		UNL1		0.1314
43		H		-5.7042		0.3906		0.3544		H		1		UNL1		0.1390
44		H		-4.2851		0.6475		1.3380		H		1		UNL1		0.1501
45		H		-5.9953		-1.9853		0.6443		H		1		UNL1		0.1127
46		H		-5.1715		-4.3015		0.3195		H		1		UNL1		0.1187
47		H		-2.8351		-4.6866		-0.4582		H		1		UNL1		0.1213
48		H		-1.3535		-2.7454		-0.9232		H		1		UNL1		0.1717
49		H		1.8250		-0.3392		-2.9407		H		1		UNL1		0.2186
50		H		3.4550		-1.0201		-2.7813		H		1		UNL1		0.1928
51		H		0.9652		-2.9160		0.7705		H		1		UNL1		0.1667
52		H		2.0586		-3.7276		2.8561		H		1		UNL1		0.1385
53		H		4.4871		-3.3249		3.2136		H		1		UNL1		0.1364
54		H		5.8064		-2.1073		1.4956		H		1		UNL1		0.1355
55		H		4.7099		-1.2678		-0.5444		H		1		UNL1		0.1402
56		H		2.9145		3.4257		-0.5013		H		1		UNL1		0.3384
57		H		1.3361		4.2896		1.1584		H		1		UNL1		0.1465
58		H		0.0773		4.2155		-1.4536		H		1		UNL1		0.3027
59		H		0.1520		5.4422		-0.3682		H		1		UNL1		0.3019
@<TRIPOS>BOND
1		49		19		1
2		50		19		1
3		39		7		1
4		19		18		1
5		19		20		1
6		40		7		1
7		21		20		2
8		18		17		1
9		58		30		1
10		7		6		1
11		7		8		1
12		41		8		1
13		38		6		1
14		20		22		1
15		48		14		1
16		30		59		1
17		30		29		1
18		6		15		1
19		6		5		1
20		8		42		1
21		8		9		1
22		17		16		ar
23		17		28		ar
24		14		15		ar
25		14		13		ar
26		55		27		1
27		56		28		1
28		16		4		ar
29		47		13		1
30		15		10		ar
31		13		12		ar
32		28		29		ar
33		22		27		ar
34		22		23		ar
35		10		11		ar
36		10		9		1
37		12		11		ar
38		12		46		1
39		27		26		ar
40		4		5		1
41		4		3		ar
42		29		3		ar
43		29		57		1
44		11		45		1
45		9		43		1
46		9		44		1
47		5		37		1
48		5		36		1
49		3		2		1
50		51		23		1
51		23		24		ar
52		35		2		1
53		26		54		1
54		26		25		ar
55		34		2		1
56		2		1		1
57		24		25		ar
58		24		52		1
59		25		53		1
60		1		31		1
61		1		32		1
62		1		33		1

