@<TRIPOS>MOLECULE
YSQ-2012-CMC-152-17S
 42 44 0 0 0
SMALL
MULLIKEN_CHARGES
****
Gaussian 16 #p B3LYP/6-31G* opt
@<TRIPOS>ATOM
1		C		-2.3851		3.4481		0.1843		C.3		1		UNL1		-0.5461
2		C		-1.3295		2.3946		-0.0549		C.ar		1		UNL1		0.1059
3		C		-0.0099		2.6828		0.3106		C.ar		1		UNL1		0.0170
4		N		1.0297		1.8579		0.1795		N.ar		1		UNL1		-0.4722
5		C		0.7323		0.6663		-0.3511		C.ar		1		UNL1		0.6874
6		N		1.7162		-0.2865		-0.5391		N.pl3		1		UNL1		-0.7665
7		C		3.0836		-0.2907		-0.2737		C.ar		1		UNL1		0.3843
8		C		3.7907		-1.4661		-0.6030		C.ar		1		UNL1		-0.2062
9		C		5.1529		-1.5662		-0.3766		C.ar		1		UNL1		-0.1408
10		C		5.8568		-0.4884		0.1899		C.ar		1		UNL1		0.1298
11		C		7.2643		-0.5846		0.4271		C.1		1		UNL1		0.2258
12		N		8.4098		-0.6644		0.6197		N.1		1		UNL1		-0.4872
13		C		5.1532		0.6825		0.5179		C.ar		1		UNL1		-0.1535
14		C		3.7867		0.7895		0.2933		C.ar		1		UNL1		-0.1617
15		N		-0.4835		0.2661		-0.7511		N.ar		1		UNL1		-0.5395
16		C		-1.5158		1.1077		-0.6111		C.ar		1		UNL1		0.2735
17		C		-2.8209		0.4773		-1.1249		C.3		1		UNL1		-0.2140
18		C		-3.9726		1.4115		-1.5375		C.3		1		UNL1		-0.4617
19		C		-3.2946		-0.6174		-0.1740		C.ar		1		UNL1		0.0174
20		C		-3.7166		-0.3754		1.1354		C.ar		1		UNL1		0.3347
21		F		-3.6911		0.9023		1.5890		F		1		UNL1		-0.2938
22		C		-4.1594		-1.3643		2.0038		C.ar		1		UNL1		-0.1912
23		C		-4.1881		-2.6832		1.5502		C.ar		1		UNL1		-0.1338
24		C		-3.7808		-2.9896		0.2527		C.ar		1		UNL1		-0.1928
25		C		-3.3460		-1.9574		-0.5711		C.ar		1		UNL1		0.3320
26		F		-2.9630		-2.2704		-1.8287		F		1		UNL1		-0.2915
27		H		-1.9339		4.3119		0.6838		H		1		UNL1		0.1572
28		H		-3.1898		3.0790		0.8244		H		1		UNL1		0.1819
29		H		-2.8372		3.8108		-0.7444		H		1		UNL1		0.1661
30		H		0.2185		3.6561		0.7448		H		1		UNL1		0.1456
31		H		1.3381		-1.1315		-0.9483		H		1		UNL1		0.3455
32		H		3.2574		-2.3065		-1.0416		H		1		UNL1		0.1355
33		H		5.6814		-2.4779		-0.6359		H		1		UNL1		0.1560
34		H		5.6883		1.5196		0.9554		H		1		UNL1		0.1563
35		H		3.2531		1.6936		0.5484		H		1		UNL1		0.1881
36		H		-2.5020		-0.0479		-2.0283		H		1		UNL1		0.1817
37		H		-4.7335		0.8213		-2.0587		H		1		UNL1		0.1585
38		H		-4.4535		1.8954		-0.6861		H		1		UNL1		0.1650
39		H		-3.6217		2.1845		-2.2293		H		1		UNL1		0.1541
40		H		-4.4684		-1.0916		3.0068		H		1		UNL1		0.1518
41		H		-4.5300		-3.4741		2.2106		H		1		UNL1		0.1497
42		H		-3.7928		-4.0039		-0.1305		H		1		UNL1		0.1515
@<TRIPOS>BOND
1		39		18		1
2		37		18		1
3		36		17		1
4		26		25		1
5		18		17		1
6		18		38		1
7		17		16		1
8		17		19		1
9		32		8		1
10		31		6		1
11		15		16		ar
12		15		5		ar
13		29		1		1
14		33		9		1
15		16		2		ar
16		8		9		ar
17		8		7		ar
18		25		19		ar
19		25		24		ar
20		6		5		1
21		6		7		1
22		9		10		ar
23		5		4		ar
24		7		14		ar
25		19		20		ar
26		42		24		1
27		2		1		1
28		2		3		ar
29		4		3		ar
30		1		27		1
31		1		28		1
32		10		11		1
33		10		13		ar
34		24		23		ar
35		14		13		ar
36		14		35		1
37		3		30		1
38		11		12		3
39		13		34		1
40		20		21		1
41		20		22		ar
42		23		22		ar
43		23		41		1
44		22		40		1

