@<TRIPOS>MOLECULE
YSQ-2012-CMC-152-11
 55 58 0 0 0
SMALL
MULLIKEN_CHARGES
****
Gaussian 16 #p B3LYP/6-31G* opt
@<TRIPOS>ATOM
1		C		8.8218		-0.2149		-0.3506		C.3		1		UNL1		-0.2144
2		O		7.7674		-0.6612		0.4859		O.3		1		UNL1		-0.5065
3		C		6.5663		-0.0156		0.4091		C.ar		1		UNL1		0.3752
4		C		5.5604		-0.4959		1.2624		C.ar		1		UNL1		-0.1737
5		C		4.3032		0.0908		1.2574		C.ar		1		UNL1		-0.1785
6		C		3.9994		1.1721		0.4080		C.ar		1		UNL1		0.1488
7		C		2.6362		1.7956		0.4549		C.3		1		UNL1		-0.1972
8		C		2.0512		2.5475		-0.7156		C.3		1		UNL1		-0.3379
9		C		1.4448		1.2244		-0.3050		C.3		1		UNL1		-0.0906
10		C		1.5884		0.0422		-1.2289		C.3		1		UNL1		-0.4375
11		S		1.4114		-1.5964		-0.3923		S.3		1		UNL1		0.1407
12		C		-0.3588		-1.7303		-0.2927		C.ar		1		UNL1		0.3283
13		N		-1.1573		-0.8449		-0.8049		N.ar		1		UNL1		-0.5204
14		C		-2.5171		-1.0284		-0.6661		C.ar		1		UNL1		0.2471
15		C		-3.3856		0.0763		-1.2815		C.3		1		UNL1		-0.2374
16		C		-2.6286		0.9597		-2.2907		C.3		1		UNL1		-0.4388
17		C		-4.0693		0.9286		-0.2165		C.ar		1		UNL1		0.0256
18		C		-5.4574		1.0912		-0.1827		C.ar		1		UNL1		0.3266
19		F		-6.2011		0.4301		-1.1038		F		1		UNL1		-0.2967
20		C		-6.1260		1.8805		0.7458		C.ar		1		UNL1		-0.1896
21		C		-5.3753		2.5627		1.7019		C.ar		1		UNL1		-0.1353
22		C		-3.9852		2.4448		1.7185		C.ar		1		UNL1		-0.1921
23		C		-3.3732		1.6397		0.7663		C.ar		1		UNL1		0.3358
24		F		-2.0239		1.5379		0.7957		F		1		UNL1		-0.2877
25		C		-3.0703		-2.1190		-0.0350		C.ar		1		UNL1		0.0402
26		C		-4.5378		-2.3930		0.1500		C.3		1		UNL1		-0.5286
27		C		-2.1843		-3.1229		0.5400		C.ar		1		UNL1		0.5785
28		O		-2.5197		-4.1401		1.1356		O.2		1		UNL1		-0.5244
29		N		-0.8140		-2.8350		0.3624		N.ar		1		UNL1		-0.6501
30		C		5.0161		1.6410		-0.4270		C.ar		1		UNL1		-0.1982
31		C		6.2896		1.0603		-0.4391		C.ar		1		UNL1		-0.1962
32		H		9.0934		0.8278		-0.1378		H		1		UNL1		0.1516
33		H		8.5621		-0.3084		-1.4137		H		1		UNL1		0.1510
34		H		9.6736		-0.8609		-0.1301		H		1		UNL1		0.1702
35		H		5.7907		-1.3309		1.9170		H		1		UNL1		0.1394
36		H		3.5337		-0.2951		1.9210		H		1		UNL1		0.1390
37		H		2.3729		2.1928		1.4351		H		1		UNL1		0.1550
38		H		1.4884		3.4571		-0.5252		H		1		UNL1		0.1565
39		H		2.6198		2.5685		-1.6422		H		1		UNL1		0.1520
40		H		0.4855		1.2717		0.2022		H		1		UNL1		0.1750
41		H		0.8366		0.0638		-2.0205		H		1		UNL1		0.2090
42		H		2.5834		-0.0006		-1.6804		H		1		UNL1		0.1838
43		H		-4.1890		-0.4228		-1.8296		H		1		UNL1		0.1691
44		H		-2.1751		0.3445		-3.0739		H		1		UNL1		0.1530
45		H		-1.8331		1.5280		-1.8054		H		1		UNL1		0.1728
46		H		-3.3280		1.6595		-2.7603		H		1		UNL1		0.1434
47		H		-7.2074		1.9479		0.7047		H		1		UNL1		0.1509
48		H		-5.8739		3.1860		2.4377		H		1		UNL1		0.1478
49		H		-3.3717		2.9611		2.4487		H		1		UNL1		0.1491
50		H		-5.1756		-1.7532		-0.4608		H		1		UNL1		0.1576
51		H		-4.7508		-3.4403		-0.0885		H		1		UNL1		0.1778
52		H		-4.8275		-2.2547		1.1999		H		1		UNL1		0.1719
53		H		-0.1732		-3.5129		0.7631		H		1		UNL1		0.3523
54		H		4.8253		2.4888		-1.0791		H		1		UNL1		0.1267
55		H		7.0480		1.4589		-1.1035		H		1		UNL1		0.1302
@<TRIPOS>BOND
1		44		16		1
2		46		16		1
3		16		45		1
4		16		15		1
5		41		10		1
6		43		15		1
7		42		10		1
8		39		8		1
9		33		1		1
10		15		14		1
11		15		17		1
12		10		11		1
13		10		9		1
14		19		18		1
15		55		31		1
16		54		30		1
17		13		14		ar
18		13		12		ar
19		8		38		1
20		8		9		1
21		8		7		1
22		14		25		ar
23		50		26		1
24		31		30		ar
25		31		3		ar
26		30		6		ar
27		11		12		1
28		1		32		1
29		1		34		1
30		1		2		1
31		9		40		1
32		9		7		1
33		12		29		ar
34		17		18		ar
35		17		23		ar
36		18		20		ar
37		51		26		1
38		25		26		1
39		25		27		ar
40		26		52		1
41		29		27		ar
42		29		53		1
43		6		7		1
44		6		5		ar
45		3		2		1
46		3		4		ar
47		7		37		1
48		27		28		2
49		47		20		1
50		20		21		ar
51		23		24		1
52		23		22		ar
53		5		4		ar
54		5		36		1
55		4		35		1
56		21		22		ar
57		21		48		1
58		22		49		1

