@<TRIPOS>MOLECULE
YSQ-2012-CMC-152-21
 50 53 0 0 0
SMALL
MULLIKEN_CHARGES
****
Gaussian 16 #p B3LYP/6-31G* opt
@<TRIPOS>ATOM
1		C		-2.7497		4.0894		-0.3237		C.3		1		UNL1		-0.4499
2		C		-2.9584		2.7105		0.3321		C.3		1		UNL1		-0.3334
3		C		-1.6598		1.9693		0.5193		C.ar		1		UNL1		0.0871
4		C		-1.1402		0.9950		-0.2990		C.ar		1		UNL1		-0.0158
5		S		-1.9575		0.3458		-1.7771		S.3		1		UNL1		0.1638
6		C		-3.5359		-0.3026		-1.2074		C.ar		1		UNL1		-0.1800
7		C		-4.6762		0.1951		-1.8113		C.ar		1		UNL1		-0.1552
8		C		-5.9527		-0.3284		-1.5021		C.ar		1		UNL1		-0.1263
9		C		-6.0780		-1.3332		-0.5729		C.ar		1		UNL1		-0.1896
10		C		-4.9325		-1.8815		0.0638		C.ar		1		UNL1		0.1472
11		C		-5.0523		-2.9337		1.0109		C.ar		1		UNL1		-0.1922
12		C		-3.9394		-3.4883		1.5992		C.ar		1		UNL1		-0.1301
13		C		-2.6518		-3.0162		1.2536		C.ar		1		UNL1		-0.1388
14		C		-2.4979		-1.9915		0.3456		C.ar		1		UNL1		-0.2034
15		C		-3.6262		-1.3821		-0.2666		C.ar		1		UNL1		0.1281
16		N		0.1125		0.4382		-0.1415		N.ar		1		UNL1		-0.4732
17		C		0.8395		0.8440		0.8498		C.ar		1		UNL1		0.3415
18		S		2.4814		0.2166		1.1654		S.3		1		UNL1		0.1639
19		C		2.7780		-0.7830		-0.3554		C.3		1		UNL1		-0.5529
20		C		3.9867		-0.2512		-1.1309		C.2		1		UNL1		0.4193
21		O		3.8029		0.3830		-2.1562		O.2		1		UNL1		-0.4392
22		C		5.3642		-0.5236		-0.6173		C.ar		1		UNL1		0.0820
23		C		5.6142		-1.2680		0.5463		C.ar		1		UNL1		-0.1820
24		C		6.9232		-1.4874		0.9752		C.ar		1		UNL1		-0.1339
25		C		7.9932		-0.9689		0.2446		C.ar		1		UNL1		-0.1176
26		C		7.7538		-0.2272		-0.9169		C.ar		1		UNL1		-0.1305
27		C		6.4493		-0.0060		-1.3442		C.ar		1		UNL1		-0.1541
28		N		0.4044		1.7640		1.7520		N.ar		1		UNL1		-0.6539
29		C		-0.8544		2.4020		1.6622		C.ar		1		UNL1		0.5890
30		O		-1.1622		3.2444		2.4948		O.2		1		UNL1		-0.5160
31		H		-2.3120		3.9880		-1.3228		H		1		UNL1		0.1524
32		H		-2.0875		4.7120		0.2855		H		1		UNL1		0.1677
33		H		-3.7086		4.6107		-0.4225		H		1		UNL1		0.1448
34		H		-3.4090		2.8552		1.3201		H		1		UNL1		0.1679
35		H		-3.6540		2.1190		-0.2628		H		1		UNL1		0.1622
36		H		-4.5870		1.0074		-2.5263		H		1		UNL1		0.1525
37		H		-6.8307		0.0829		-1.9920		H		1		UNL1		0.1378
38		H		-7.0572		-1.7295		-0.3156		H		1		UNL1		0.1359
39		H		-6.0469		-3.2975		1.2581		H		1		UNL1		0.1329
40		H		-4.0454		-4.2936		2.3208		H		1		UNL1		0.1330
41		H		-1.7743		-3.4704		1.7061		H		1		UNL1		0.1317
42		H		-1.5034		-1.6499		0.0812		H		1		UNL1		0.1711
43		H		1.8825		-0.6708		-0.9705		H		1		UNL1		0.2622
44		H		2.8949		-1.8275		-0.0569		H		1		UNL1		0.1991
45		H		4.7948		-1.6816		1.1268		H		1		UNL1		0.1408
46		H		7.1063		-2.0638		1.8776		H		1		UNL1		0.1415
47		H		9.0127		-1.1418		0.5788		H		1		UNL1		0.1427
48		H		8.5867		0.1771		-1.4855		H		1		UNL1		0.1436
49		H		6.2393		0.5674		-2.2411		H		1		UNL1		0.1696
50		H		0.9936		2.0787		2.5167		H		1		UNL1		0.3567
@<TRIPOS>BOND
1		36		7		1
2		49		27		1
3		21		20		2
4		37		8		1
5		7		8		ar
6		7		6		ar
7		5		6		1
8		5		4		1
9		8		9		ar
10		48		26		1
11		27		26		ar
12		27		22		ar
13		31		1		1
14		6		15		ar
15		20		22		1
16		20		19		1
17		43		19		1
18		26		25		ar
19		22		23		ar
20		9		38		1
21		9		10		ar
22		33		1		1
23		19		44		1
24		19		18		1
25		1		32		1
26		1		2		1
27		4		16		ar
28		4		3		ar
29		15		10		ar
30		15		14		ar
31		35		2		1
32		16		17		ar
33		10		11		ar
34		42		14		1
35		25		47		1
36		25		24		ar
37		2		3		1
38		2		34		1
39		14		13		ar
40		3		29		ar
41		23		24		ar
42		23		45		1
43		17		18		1
44		17		28		ar
45		24		46		1
46		11		39		1
47		11		12		ar
48		13		12		ar
49		13		41		1
50		12		40		1
51		29		28		ar
52		29		30		2
53		28		50		1

