@<TRIPOS>MOLECULE
YSQ-2012-CMC-152-MC-1220
 38 39 0 0 0
SMALL
MULLIKEN_CHARGES
****
Gaussian 16 #p B3LYP/6-31G* opt
@<TRIPOS>ATOM
1		C		-0.5730		3.3121		0.3358		C.3		1		UNL1		-0.5503
2		C		-1.1067		1.9084		0.1819		C.ar		1		UNL1		0.0345
3		C		-0.4376		0.7569		0.5370		C.ar		1		UNL1		0.2665
4		C		0.9516		0.7950		1.1754		C.3		1		UNL1		-0.2204
5		C		0.8975		0.2946		2.6346		C.3		1		UNL1		-0.4537
6		C		1.9709		0.0720		0.2993		C.ar		1		UNL1		0.0109
7		C		2.2072		-1.3078		0.2837		C.ar		1		UNL1		0.3460
8		F		1.5153		-2.1152		1.1210		F		1		UNL1		-0.2911
9		C		3.1406		-1.9207		-0.5461		C.ar		1		UNL1		-0.1952
10		C		3.8892		-1.1359		-1.4210		C.ar		1		UNL1		-0.1343
11		C		3.6988		0.2443		-1.4554		C.ar		1		UNL1		-0.1925
12		C		2.7528		0.8023		-0.6049		C.ar		1		UNL1		0.3349
13		F		2.5851		2.1470		-0.6553		F		1		UNL1		-0.2935
14		N		-0.9301		-0.5092		0.3812		N.ar		1		UNL1		-0.5954
15		C		-2.1230		-0.6539		-0.1459		C.ar		1		UNL1		0.7891
16		N		-2.6431		-1.9032		-0.3583		N.pl3		1		UNL1		-0.4549
17		C		-1.9511		-3.0710		0.1792		C.3		1		UNL1		-0.3306
18		C		-4.0064		-2.0820		-0.8289		C.3		1		UNL1		-0.3393
19		N		-2.8723		0.4313		-0.5114		N.ar		1		UNL1		-0.7140
20		C		-2.4358		1.7732		-0.3849		C.ar		1		UNL1		0.5688
21		O		-3.1928		2.6689		-0.7496		O.2		1		UNL1		-0.5421
22		H		0.3968		3.4349		-0.1581		H		1		UNL1		0.1657
23		H		-1.2820		4.0106		-0.1138		H		1		UNL1		0.1883
24		H		-0.4477		3.5965		1.3888		H		1		UNL1		0.1518
25		H		1.2724		1.8364		1.2056		H		1		UNL1		0.1596
26		H		0.2807		0.9772		3.2295		H		1		UNL1		0.1458
27		H		1.9019		0.2750		3.0717		H		1		UNL1		0.1460
28		H		0.4676		-0.7049		2.6994		H		1		UNL1		0.1777
29		H		3.2633		-2.9970		-0.4902		H		1		UNL1		0.1440
30		H		4.6211		-1.5998		-2.0752		H		1		UNL1		0.1434
31		H		4.2613		0.8904		-2.1202		H		1		UNL1		0.1476
32		H		-1.9735		-3.8788		-0.5603		H		1		UNL1		0.1532
33		H		-2.4272		-3.4271		1.1040		H		1		UNL1		0.1545
34		H		-0.9192		-2.8013		0.3960		H		1		UNL1		0.2240
35		H		-4.7587		-1.7552		-0.0946		H		1		UNL1		0.1678
36		H		-4.1787		-1.5501		-1.7729		H		1		UNL1		0.1704
37		H		-4.1674		-3.1438		-1.0245		H		1		UNL1		0.1780
38		H		-3.8028		0.3429		-0.8989		H		1		UNL1		0.3385
@<TRIPOS>BOND
1		31		11		1
2		30		10		1
3		36		18		1
4		11		10		ar
5		11		12		ar
6		10		9		ar
7		37		18		1
8		38		19		1
9		18		16		1
10		18		35		1
11		21		20		2
12		13		12		1
13		12		6		ar
14		32		17		1
15		9		29		1
16		9		7		ar
17		19		20		ar
18		19		15		ar
19		20		2		ar
20		16		15		1
21		16		17		1
22		22		1		1
23		15		14		ar
24		23		1		1
25		17		34		1
26		17		33		1
27		2		1		1
28		2		3		ar
29		7		6		ar
30		7		8		1
31		6		4		1
32		1		24		1
33		14		3		ar
34		3		4		1
35		4		25		1
36		4		5		1
37		5		28		1
38		5		27		1
39		5		26		1

