@<TRIPOS>MOLECULE
YZH-2014-BMC-2535-2-3l
 43 45 0 0 0
SMALL
MULLIKEN_CHARGES
****
Gaussian 16 #p B3LYP/6-31G* opt
@<TRIPOS>ATOM
1		C		0.0051		3.2917		0.9555		C.3		1		UNL1		-0.5146
2		C		0.0921		1.7986		0.7928		C.ar		1		UNL1		0.3400
3		C		1.2973		1.1089		0.9104		C.ar		1		UNL1		-0.2286
4		C		1.2628		-0.2781		0.7352		C.ar		1		UNL1		0.3487
5		C		2.4989		-1.1912		0.8918		C.3		1		UNL1		0.1902
6		C		2.7626		-1.3788		2.4022		C.3		1		UNL1		-0.4492
7		O		2.2074		-2.4618		0.3280		O.3		1		UNL1		-0.6647
8		C		3.6969		-0.6028		0.1361		C.ar		1		UNL1		0.1385
9		C		3.8223		-0.8601		-1.2371		C.ar		1		UNL1		-0.1620
10		C		4.8722		-0.3248		-1.9789		C.ar		1		UNL1		-0.1978
11		C		5.8074		0.4769		-1.3333		C.ar		1		UNL1		0.3822
12		F		6.8292		0.9981		-2.0448		F		1		UNL1		-0.2973
13		C		5.7211		0.7496		0.0248		C.ar		1		UNL1		-0.2040
14		C		4.6616		0.2037		0.7532		C.ar		1		UNL1		-0.1930
15		N		0.1237		-0.9140		0.4659		N.ar		1		UNL1		-0.6152
16		C		-0.9939		-0.1602		0.3671		C.ar		1		UNL1		0.7060
17		N		-2.1257		-0.8935		0.0814		N.pl3		1		UNL1		-0.7710
18		C		-3.4617		-0.5302		-0.1020		C.ar		1		UNL1		0.3820
19		C		-4.3661		-1.5739		-0.3848		C.ar		1		UNL1		-0.2061
20		C		-5.7123		-1.3161		-0.5829		C.ar		1		UNL1		-0.1400
21		C		-6.1980		0.0011		-0.5037		C.ar		1		UNL1		0.1321
22		C		-7.5876		0.2760		-0.7067		C.1		1		UNL1		0.2281
23		N		-8.7183		0.4986		-0.8718		N.1		1		UNL1		-0.4831
24		C		-5.2969		1.0409		-0.2221		C.ar		1		UNL1		-0.1533
25		C		-3.9452		0.7886		-0.0225		C.ar		1		UNL1		-0.1591
26		N		-1.0629		1.1629		0.5203		N.ar		1		UNL1		-0.5328
27		H		0.9796		3.7325		1.1808		H		1		UNL1		0.1623
28		H		-0.6930		3.5431		1.7620		H		1		UNL1		0.1812
29		H		-0.3856		3.7482		0.0391		H		1		UNL1		0.1831
30		H		2.2260		1.6299		1.1084		H		1		UNL1		0.1509
31		H		2.9291		-0.4335		2.9284		H		1		UNL1		0.1416
32		H		3.6348		-2.0247		2.5394		H		1		UNL1		0.1718
33		H		1.8936		-1.8684		2.8524		H		1		UNL1		0.1552
34		H		1.2310		-2.5076		0.2882		H		1		UNL1		0.4066
35		H		3.0953		-1.5064		-1.7154		H		1		UNL1		0.1549
36		H		4.9782		-0.5242		-3.0404		H		1		UNL1		0.1487
37		H		6.4753		1.3698		0.4981		H		1		UNL1		0.1468
38		H		4.6081		0.4100		1.8173		H		1		UNL1		0.1344
39		H		-1.9226		-1.8808		-0.0071		H		1		UNL1		0.3438
40		H		-4.0024		-2.5970		-0.4486		H		1		UNL1		0.1378
41		H		-6.3957		-2.1306		-0.7997		H		1		UNL1		0.1597
42		H		-5.6637		2.0606		-0.1595		H		1		UNL1		0.1587
43		H		-3.2577		1.5930		0.1936		H		1		UNL1		0.1865
@<TRIPOS>BOND
1		36		10		1
2		12		11		1
3		10		11		ar
4		10		9		ar
5		35		9		1
6		11		13		ar
7		9		8		ar
8		23		22		3
9		41		20		1
10		22		21		1
11		20		21		ar
12		20		19		ar
13		21		24		ar
14		40		19		1
15		19		18		ar
16		24		42		1
17		24		25		ar
18		18		25		ar
19		18		17		1
20		25		43		1
21		39		17		1
22		13		37		1
23		13		14		ar
24		29		1		1
25		17		16		1
26		8		14		ar
27		8		5		1
28		34		7		1
29		7		5		1
30		16		15		ar
31		16		26		ar
32		15		4		ar
33		26		2		ar
34		4		5		1
35		4		3		ar
36		14		38		1
37		2		3		ar
38		2		1		1
39		5		6		1
40		3		30		1
41		1		27		1
42		1		28		1
43		6		32		1
44		6		33		1
45		6		31		1

