@<TRIPOS>MOLECULE
YZH-2014-BMC-2535-2-3o
 43 45 0 0 0
SMALL
MULLIKEN_CHARGES
****
Gaussian 16 #p B3LYP/6-31G* opt
@<TRIPOS>ATOM
1		C		0.4963		4.2525		-0.0430		C.3		1		UNL1		-0.4440
2		C		1.6490		3.2669		-0.2547		C.3		1		UNL1		-0.2886
3		C		1.3967		1.8688		0.3715		C.3		1		UNL1		0.2021
4		O		1.0609		2.0178		1.7511		O.3		1		UNL1		-0.6304
5		C		2.6095		0.9266		0.2514		C.ar		1		UNL1		0.1013
6		C		2.6364		-0.2177		1.0647		C.ar		1		UNL1		-0.1704
7		C		3.6975		-1.1174		1.0122		C.ar		1		UNL1		-0.1489
8		C		4.7527		-0.8731		0.1333		C.ar		1		UNL1		0.0859
9		BR		6.2168		-2.0993		0.0542		Br		1		UNL1		-0.1242
10		C		4.7548		0.2524		-0.6842		C.ar		1		UNL1		-0.1540
11		C		3.6821		1.1458		-0.6206		C.ar		1		UNL1		-0.1906
12		C		0.1866		1.2122		-0.3145		C.ar		1		UNL1		0.3192
13		C		0.2528		0.8248		-1.6645		C.ar		1		UNL1		-0.1934
14		C		-0.8944		0.2659		-2.2061		C.ar		1		UNL1		0.0658
15		N		-2.0251		0.0836		-1.5106		N.ar		1		UNL1		-0.4766
16		C		-1.9760		0.4819		-0.2342		C.ar		1		UNL1		0.6891
17		N		-3.0763		0.3420		0.5860		N.pl3		1		UNL1		-0.7660
18		C		-4.3550		-0.1693		0.3680		C.ar		1		UNL1		0.3829
19		C		-4.8015		-0.6974		-0.8580		C.ar		1		UNL1		-0.1605
20		C		-6.0985		-1.1825		-0.9692		C.ar		1		UNL1		-0.1533
21		C		-6.9817		-1.1580		0.1228		C.ar		1		UNL1		0.1308
22		C		-8.3150		-1.6607		-0.0063		C.1		1		UNL1		0.2268
23		N		-9.4002		-2.0693		-0.1100		N.1		1		UNL1		-0.4857
24		C		-6.5334		-0.6303		1.3469		C.ar		1		UNL1		-0.1407
25		C		-5.2418		-0.1452		1.4643		C.ar		1		UNL1		-0.2053
26		N		-0.9211		1.0426		0.3969		N.ar		1		UNL1		-0.5286
27		H		-0.4113		3.9279		-0.5625		H		1		UNL1		0.1556
28		H		0.2554		4.3472		1.0190		H		1		UNL1		0.1665
29		H		0.7679		5.2407		-0.4290		H		1		UNL1		0.1456
30		H		1.8491		3.1622		-1.3274		H		1		UNL1		0.1423
31		H		2.5684		3.6687		0.1943		H		1		UNL1		0.1374
32		H		1.8645		2.3380		2.1930		H		1		UNL1		0.3930
33		H		1.8150		-0.3936		1.7523		H		1		UNL1		0.1655
34		H		3.7073		-1.9981		1.6452		H		1		UNL1		0.1596
35		H		5.5831		0.4351		-1.3602		H		1		UNL1		0.1574
36		H		3.7050		2.0204		-1.2621		H		1		UNL1		0.1410
37		H		1.1563		0.9349		-2.2521		H		1		UNL1		0.1476
38		H		-0.9198		-0.0588		-3.2448		H		1		UNL1		0.1544
39		H		-2.8859		0.6897		1.5177		H		1		UNL1		0.3505
40		H		-4.1279		-0.7195		-1.7024		H		1		UNL1		0.1886
41		H		-6.4362		-1.5883		-1.9177		H		1		UNL1		0.1573
42		H		-7.2035		-0.6043		2.2001		H		1		UNL1		0.1573
43		H		-4.9063		0.2608		2.4158		H		1		UNL1		0.1377
@<TRIPOS>BOND
1		38		14		1
2		37		13		1
3		14		13		ar
4		14		15		ar
5		41		20		1
6		40		19		1
7		13		12		ar
8		15		16		ar
9		35		10		1
10		30		2		1
11		36		11		1
12		20		19		ar
13		20		21		ar
14		19		18		ar
15		10		11		ar
16		10		8		ar
17		11		5		ar
18		27		1		1
19		29		1		1
20		12		3		1
21		12		26		ar
22		2		1		1
23		2		31		1
24		2		3		1
25		16		26		ar
26		16		17		1
27		23		22		3
28		1		28		1
29		22		21		1
30		9		8		1
31		21		24		ar
32		8		7		ar
33		5		3		1
34		5		6		ar
35		18		17		1
36		18		25		ar
37		3		4		1
38		17		39		1
39		7		6		ar
40		7		34		1
41		6		33		1
42		24		25		ar
43		24		42		1
44		25		43		1
45		4		32		1

