@<TRIPOS>MOLECULE
YZH-2014-BMC-2535-2-3f
 40 42 0 0 0
SMALL
MULLIKEN_CHARGES
****
Gaussian 16 #p B3LYP/6-31G* opt
@<TRIPOS>ATOM
1		C		2.3102		2.8278		0.9243		C.3		1		UNL1		-0.4496
2		C		2.1013		1.6165		-0.0114		C.3		1		UNL1		0.1901
3		O		1.7968		2.1013		-1.3100		O.3		1		UNL1		-0.6637
4		C		3.3383		0.7158		-0.1206		C.ar		1		UNL1		0.1381
5		C		3.5150		-0.0544		-1.2781		C.ar		1		UNL1		-0.1568
6		C		4.6023		-0.9137		-1.4150		C.ar		1		UNL1		-0.1310
7		C		5.5321		-1.0061		-0.3794		C.ar		1		UNL1		-0.0634
8		CL		6.9096		-2.0874		-0.5426		Cl		1		UNL1		-0.0228
9		C		5.3870		-0.2482		0.7791		C.ar		1		UNL1		-0.1358
10		C		4.2908		0.6086		0.8998		C.ar		1		UNL1		-0.1890
11		C		0.8975		0.8068		0.5185		C.ar		1		UNL1		0.3453
12		C		0.9580		-0.0397		1.6323		C.ar		1		UNL1		-0.1934
13		C		-0.2317		-0.6488		2.0077		C.ar		1		UNL1		0.0704
14		N		-1.3927		-0.4649		1.3660		N.ar		1		UNL1		-0.4774
15		C		-1.3457		0.3585		0.3132		C.ar		1		UNL1		0.7072
16		N		-2.4781		0.6179		-0.4249		N.pl3		1		UNL1		-0.7658
17		C		-3.7981		0.1712		-0.3125		C.ar		1		UNL1		0.3813
18		C		-4.7111		0.6595		-1.2686		C.ar		1		UNL1		-0.2059
19		C		-6.0419		0.2770		-1.2425		C.ar		1		UNL1		-0.1397
20		C		-6.5018		-0.6103		-0.2535		C.ar		1		UNL1		0.1326
21		C		-7.8757		-1.0098		-0.2195		C.1		1		UNL1		0.2291
22		N		-8.9934		-1.3338		-0.1927		N.1		1		UNL1		-0.4818
23		C		-5.5917		-1.0968		0.6988		C.ar		1		UNL1		-0.1528
24		C		-4.2552		-0.7169		0.6779		C.ar		1		UNL1		-0.1587
25		N		-0.2462		1.0047		-0.1352		N.ar		1		UNL1		-0.6083
26		H		1.4147		3.4559		0.8909		H		1		UNL1		0.1569
27		H		2.4835		2.5398		1.9659		H		1		UNL1		0.1428
28		H		3.1606		3.4165		0.5683		H		1		UNL1		0.1738
29		H		0.8222		2.0567		-1.3810		H		1		UNL1		0.4076
30		H		2.7984		0.0425		-2.0858		H		1		UNL1		0.1566
31		H		4.7321		-1.5027		-2.3168		H		1		UNL1		0.1575
32		H		6.1222		-0.3195		1.5736		H		1		UNL1		0.1559
33		H		4.2006		1.2020		1.8040		H		1		UNL1		0.1362
34		H		1.8838		-0.2274		2.1615		H		1		UNL1		0.1579
35		H		-0.2667		-1.3233		2.8612		H		1		UNL1		0.1614
36		H		-2.2942		1.2552		-1.1890		H		1		UNL1		0.3447
37		H		-4.3669		1.3465		-2.0384		H		1		UNL1		0.1385
38		H		-6.7329		0.6616		-1.9855		H		1		UNL1		0.1606
39		H		-5.9388		-1.7824		1.4654		H		1		UNL1		0.1606
40		H		-3.5615		-1.0958		1.4140		H		1		UNL1		0.1906
@<TRIPOS>BOND
1		31		6		1
2		30		5		1
3		37		18		1
4		38		19		1
5		6		5		ar
6		6		7		ar
7		29		3		1
8		3		2		1
9		5		4		ar
10		18		19		ar
11		18		17		ar
12		19		20		ar
13		36		16		1
14		8		7		1
15		16		17		1
16		16		15		1
17		7		9		ar
18		17		24		ar
19		20		21		1
20		20		23		ar
21		21		22		3
22		25		15		ar
23		25		11		ar
24		4		2		1
25		4		10		ar
26		2		11		1
27		2		1		1
28		15		14		ar
29		11		12		ar
30		28		1		1
31		24		23		ar
32		24		40		1
33		23		39		1
34		9		10		ar
35		9		32		1
36		26		1		1
37		10		33		1
38		1		27		1
39		14		13		ar
40		12		13		ar
41		12		34		1
42		13		35		1

