@<TRIPOS>MOLECULE
YZH-2014-BMC-2535-2-3i
 40 42 0 0 0
SMALL
MULLIKEN_CHARGES
****
Gaussian 16 #p B3LYP/6-31G* opt
@<TRIPOS>ATOM
1		C		-1.9718		2.3991		0.4425		C.3		1		UNL1		-0.4254
2		C		-2.1903		1.1181		-0.3677		C.3		1		UNL1		0.1731
3		O		-2.5605		1.5701		-1.6791		O.3		1		UNL1		-0.6270
4		C		-3.3095		0.2802		0.2703		C.ar		1		UNL1		0.1119
5		C		-3.0708		-0.4803		1.4236		C.ar		1		UNL1		-0.1691
6		C		-4.1038		-1.1984		2.0229		C.ar		1		UNL1		-0.1341
7		C		-5.3921		-1.1754		1.4847		C.ar		1		UNL1		-0.1271
8		C		-5.6204		-0.4139		0.3415		C.ar		1		UNL1		-0.0646
9		CL		-7.2366		-0.3657		-0.3543		Cl		1		UNL1		-0.0217
10		C		-4.5991		0.3144		-0.2682		C.ar		1		UNL1		-0.1968
11		C		-0.9027		0.2861		-0.5191		C.ar		1		UNL1		0.3385
12		C		-0.9367		-0.9716		-1.1470		C.ar		1		UNL1		-0.2147
13		C		0.2811		-1.6128		-1.3225		C.ar		1		UNL1		0.0703
14		N		1.4486		-1.0957		-0.9198		N.ar		1		UNL1		-0.4743
15		C		1.3694		0.0996		-0.3219		C.ar		1		UNL1		0.6958
16		N		2.5053		0.7242		0.1441		N.pl3		1		UNL1		-0.7643
17		C		3.8530		0.3592		0.1371		C.ar		1		UNL1		0.3820
18		C		4.3482		-0.8428		-0.4009		C.ar		1		UNL1		-0.1596
19		C		5.7110		-1.1095		-0.3544		C.ar		1		UNL1		-0.1530
20		C		6.6118		-0.1991		0.2218		C.ar		1		UNL1		0.1319
21		C		8.0129		-0.4872		0.2634		C.1		1		UNL1		0.2281
22		N		9.1528		-0.7206		0.2983		N.1		1		UNL1		-0.4833
23		C		6.1145		1.0019		0.7583		C.ar		1		UNL1		-0.1401
24		C		4.7572		1.2734		0.7151		C.ar		1		UNL1		-0.2053
25		N		0.2434		0.8157		-0.1033		N.ar		1		UNL1		-0.5615
26		H		-1.1918		3.0064		-0.0208		H		1		UNL1		0.1706
27		H		-1.6743		2.1678		1.4682		H		1		UNL1		0.1514
28		H		-2.9077		2.9641		0.4625		H		1		UNL1		0.1611
29		H		-2.6446		0.7932		-2.2566		H		1		UNL1		0.3933
30		H		-2.0738		-0.5137		1.8545		H		1		UNL1		0.1414
31		H		-3.9081		-1.7858		2.9156		H		1		UNL1		0.1448
32		H		-6.2016		-1.7344		1.9414		H		1		UNL1		0.1577
33		H		-4.8031		0.9154		-1.1464		H		1		UNL1		0.1664
34		H		-1.8668		-1.4346		-1.4578		H		1		UNL1		0.1514
35		H		0.3356		-2.5889		-1.8013		H		1		UNL1		0.1584
36		H		2.2901		1.6205		0.5626		H		1		UNL1		0.3480
37		H		3.6619		-1.5480		-0.8467		H		1		UNL1		0.1891
38		H		6.0868		-2.0386		-0.7713		H		1		UNL1		0.1592
39		H		6.7978		1.7158		1.2066		H		1		UNL1		0.1594
40		H		4.3841		2.2055		1.1331		H		1		UNL1		0.1383
@<TRIPOS>BOND
1		29		3		1
2		35		13		1
3		3		2		1
4		34		12		1
5		13		12		ar
6		13		14		ar
7		12		11		ar
8		33		10		1
9		14		15		ar
10		37		18		1
11		38		19		1
12		11		2		1
13		11		25		ar
14		18		19		ar
15		18		17		ar
16		2		4		1
17		2		1		1
18		19		20		ar
19		9		8		1
20		15		25		ar
21		15		16		1
22		10		4		ar
23		10		8		ar
24		26		1		1
25		17		16		1
26		17		24		ar
27		16		36		1
28		20		21		1
29		20		23		ar
30		21		22		3
31		4		5		ar
32		8		7		ar
33		1		28		1
34		1		27		1
35		24		23		ar
36		24		40		1
37		23		39		1
38		5		30		1
39		5		6		ar
40		7		32		1
41		7		6		ar
42		6		31		1

