@<TRIPOS>MOLECULE
YZH-2014-BMC-3220-2-7b
 39 41 0 0 0
SMALL
MULLIKEN_CHARGES
****
Gaussian 16 #p B3LYP/6-31G* opt
@<TRIPOS>ATOM
1		C		5.5373		3.5990		0.9583		C.3		1		UNL1		-0.5322
2		C		4.8012		2.3669		0.4880		C.ar		1		UNL1		0.1823
3		C		4.3180		1.4253		1.4104		C.ar		1		UNL1		-0.1778
4		C		3.6288		0.2929		0.9908		C.ar		1		UNL1		-0.1586
5		C		3.4021		0.0626		-0.3735		C.ar		1		UNL1		0.2010
6		C		2.6602		-1.1583		-0.8659		C.3		1		UNL1		-0.3886
7		CL		3.7263		-2.6592		-0.7546		Cl		1		UNL1		-0.0741
8		C		1.3282		-1.3827		-0.1662		C.ar		1		UNL1		0.3529
9		C		1.1381		-2.2205		0.9385		C.ar		1		UNL1		-0.1979
10		C		-0.1462		-2.2479		1.4708		C.ar		1		UNL1		0.0695
11		N		-1.1648		-1.5338		0.9811		N.ar		1		UNL1		-0.4739
12		C		-0.8727		-0.7716		-0.0823		C.ar		1		UNL1		0.6929
13		N		-1.8474		0.0016		-0.6751		N.pl3		1		UNL1		-0.7647
14		C		-3.2023		0.1886		-0.3967		C.ar		1		UNL1		0.3826
15		C		-3.9012		1.0820		-1.2341		C.ar		1		UNL1		-0.2054
16		C		-5.2487		1.3349		-1.0394		C.ar		1		UNL1		-0.1402
17		C		-5.9431		0.6987		0.0048		C.ar		1		UNL1		0.1315
18		C		-7.3353		0.9553		0.2127		C.1		1		UNL1		0.2277
19		N		-8.4680		1.1654		0.3808		N.1		1		UNL1		-0.4842
20		C		-5.2470		-0.1916		0.8389		C.ar		1		UNL1		-0.1530
21		C		-3.8951		-0.4495		0.6488		C.ar		1		UNL1		-0.1597
22		N		0.3306		-0.6642		-0.6819		N.ar		1		UNL1		-0.5349
23		C		3.8824		0.9944		-1.2976		C.ar		1		UNL1		-0.1729
24		C		4.5715		2.1302		-0.8711		C.ar		1		UNL1		-0.1822
25		H		4.8745		4.2675		1.5225		H		1		UNL1		0.1685
26		H		6.3700		3.3378		1.6222		H		1		UNL1		0.1666
27		H		5.9443		4.1681		0.1168		H		1		UNL1		0.1591
28		H		4.4847		1.5845		2.4734		H		1		UNL1		0.1303
29		H		3.2671		-0.4182		1.7281		H		1		UNL1		0.1376
30		H		2.4524		-1.0497		-1.9303		H		1		UNL1		0.2106
31		H		1.9376		-2.8269		1.3433		H		1		UNL1		0.1715
32		H		-0.3772		-2.8735		2.3312		H		1		UNL1		0.1592
33		H		-1.4793		0.5249		-1.4595		H		1		UNL1		0.3476
34		H		-3.3746		1.5801		-2.0450		H		1		UNL1		0.1373
35		H		-5.7722		2.0254		-1.6927		H		1		UNL1		0.1585
36		H		-5.7755		-0.6872		1.6472		H		1		UNL1		0.1588
37		H		-3.3669		-1.1353		1.2951		H		1		UNL1		0.1893
38		H		3.7201		0.8317		-2.3604		H		1		UNL1		0.1350
39		H		4.9363		2.8417		-1.6080		H		1		UNL1		0.1300
@<TRIPOS>BOND
1		38		23		1
2		34		15		1
3		30		6		1
4		35		16		1
5		39		24		1
6		33		13		1
7		23		24		ar
8		23		5		ar
9		15		16		ar
10		15		14		ar
11		16		17		ar
12		24		2		ar
13		6		7		1
14		6		5		1
15		6		8		1
16		22		8		ar
17		22		12		ar
18		13		14		1
19		13		12		1
20		14		21		ar
21		5		4		ar
22		8		9		ar
23		12		11		ar
24		17		18		1
25		17		20		ar
26		27		1		1
27		18		19		3
28		2		1		1
29		2		3		ar
30		21		20		ar
31		21		37		1
32		20		36		1
33		9		31		1
34		9		10		ar
35		1		25		1
36		1		26		1
37		11		10		ar
38		4		3		ar
39		4		29		1
40		3		28		1
41		10		32		1

