@<TRIPOS>MOLECULE
YZH-2014-BMC-2535-2-3g
 40 42 0 0 0
SMALL
MULLIKEN_CHARGES
****
Gaussian 16 #p B3LYP/6-31G* opt
@<TRIPOS>ATOM
1		C		-2.2212		3.6066		0.3125		C.3		1		UNL1		-0.4482
2		C		-1.5623		2.2659		0.6657		C.3		1		UNL1		0.1927
3		O		-1.2368		2.3404		2.0460		O.3		1		UNL1		-0.6556
4		C		-2.5437		1.1018		0.3972		C.ar		1		UNL1		0.1409
5		C		-2.8777		0.7013		-0.9035		C.ar		1		UNL1		-0.1799
6		C		-3.7942		-0.3246		-1.1297		C.ar		1		UNL1		-0.1520
7		C		-4.3859		-0.9582		-0.0389		C.ar		1		UNL1		0.0850
8		BR		-5.6425		-2.3694		-0.3380		Br		1		UNL1		-0.1315
9		C		-4.0739		-0.5789		1.2636		C.ar		1		UNL1		-0.1476
10		C		-3.1537		0.4494		1.4730		C.ar		1		UNL1		-0.1835
11		C		-0.2595		2.0235		-0.1193		C.ar		1		UNL1		0.3460
12		C		-0.0023		2.5068		-1.4073		C.ar		1		UNL1		-0.2111
13		C		1.2291		2.1695		-1.9602		C.ar		1		UNL1		0.0710
14		N		2.1419		1.4237		-1.3316		N.ar		1		UNL1		-0.4751
15		C		1.8024		1.0125		-0.1015		C.ar		1		UNL1		0.7063
16		N		2.6686		0.2407		0.6385		N.pl3		1		UNL1		-0.7653
17		C		3.9490		-0.2557		0.3766		C.ar		1		UNL1		0.3817
18		C		4.5422		-1.0322		1.3922		C.ar		1		UNL1		-0.2055
19		C		5.8090		-1.5681		1.2307		C.ar		1		UNL1		-0.1397
20		C		6.5245		-1.3421		0.0416		C.ar		1		UNL1		0.1327
21		C		7.8342		-1.8920		-0.1328		C.1		1		UNL1		0.2290
22		N		8.8995		-2.3396		-0.2735		N.1		1		UNL1		-0.4820
23		C		5.9329		-0.5688		-0.9703		C.ar		1		UNL1		-0.1527
24		C		4.6622		-0.0285		-0.8142		C.ar		1		UNL1		-0.1585
25		N		0.6430		1.2858		0.5305		N.ar		1		UNL1		-0.5933
26		H		-3.0691		3.7635		0.9850		H		1		UNL1		0.1745
27		H		-1.5104		4.4274		0.4507		H		1		UNL1		0.1616
28		H		-2.5976		3.6203		-0.7144		H		1		UNL1		0.1452
29		H		-0.4894		1.7236		2.1697		H		1		UNL1		0.4064
30		H		-2.4166		1.1820		-1.7620		H		1		UNL1		0.1316
31		H		-4.0433		-0.6300		-2.1402		H		1		UNL1		0.1544
32		H		-4.5430		-1.0783		2.1046		H		1		UNL1		0.1553
33		H		-2.9065		0.7593		2.4820		H		1		UNL1		0.1585
34		H		-0.7068		3.1268		-1.9468		H		1		UNL1		0.1529
35		H		1.5047		2.5151		-2.9550		H		1		UNL1		0.1610
36		H		2.2788		-0.0037		1.5399		H		1		UNL1		0.3453
37		H		3.9983		-1.2139		2.3164		H		1		UNL1		0.1387
38		H		6.2523		-2.1639		2.0218		H		1		UNL1		0.1606
39		H		6.4785		-0.3899		-1.8914		H		1		UNL1		0.1603
40		H		4.2143		0.5646		-1.5980		H		1		UNL1		0.1898
@<TRIPOS>BOND
1		35		13		1
2		31		6		1
3		13		12		ar
4		13		14		ar
5		34		12		1
6		39		23		1
7		30		5		1
8		40		24		1
9		12		11		ar
10		14		15		ar
11		6		5		ar
12		6		7		ar
13		23		24		ar
14		23		20		ar
15		5		4		ar
16		24		17		ar
17		28		1		1
18		8		7		1
19		22		21		3
20		21		20		1
21		11		25		ar
22		11		2		1
23		15		25		ar
24		15		16		1
25		7		9		ar
26		20		19		ar
27		1		27		1
28		1		2		1
29		1		26		1
30		17		16		1
31		17		18		ar
32		4		2		1
33		4		10		ar
34		16		36		1
35		2		3		1
36		19		18		ar
37		19		38		1
38		9		10		ar
39		9		32		1
40		18		37		1
41		10		33		1
42		3		29		1

