@<TRIPOS>MOLECULE
YZH-2014-BMC-2535-2-3p
 44 47 0 0 0
SMALL
MULLIKEN_CHARGES
****
Gaussian 16 #p B3LYP/6-31G* opt
@<TRIPOS>ATOM
1		N		6.2545		3.8201		1.7134		N.1		1		UNL1		-0.4868
2		C		5.6980		2.9413		1.1904		C.1		1		UNL1		0.2265
3		C		5.0154		1.8606		0.5475		C.ar		1		UNL1		0.1318
4		C		5.5440		1.2744		-0.6162		C.ar		1		UNL1		-0.1414
5		C		4.8764		0.2291		-1.2321		C.ar		1		UNL1		-0.2048
6		C		3.6636		-0.2656		-0.7104		C.ar		1		UNL1		0.3791
7		N		3.0756		-1.3287		-1.3982		N.pl3		1		UNL1		-0.7635
8		C		1.8946		-2.0122		-1.2062		C.ar		1		UNL1		0.6872
9		N		1.7165		-3.0342		-2.0745		N.ar		1		UNL1		-0.4817
10		C		0.5931		-3.7245		-1.9132		C.ar		1		UNL1		0.0664
11		C		-0.3491		-3.4373		-0.9203		C.ar		1		UNL1		-0.2146
12		C		-0.0638		-2.3533		-0.0903		C.ar		1		UNL1		0.3157
13		C		-1.0077		-1.8759		1.0265		C.3		1		UNL1		0.2180
14		O		-0.1560		-1.5949		2.1453		O.3		1		UNL1		-0.6414
15		C		-1.7237		-0.5953		0.5556		C.ar		1		UNL1		0.1401
16		C		-2.3790		-0.5366		-0.6831		C.ar		1		UNL1		-0.1832
17		C		-3.0382		0.6195		-1.0983		C.ar		1		UNL1		-0.1536
18		C		-3.0396		1.7367		-0.2655		C.ar		1		UNL1		0.0857
19		BR		-3.9427		3.3265		-0.8242		Br		1		UNL1		-0.1269
20		C		-2.3833		1.7127		0.9617		C.ar		1		UNL1		-0.1470
21		C		-1.7263		0.5479		1.3614		C.ar		1		UNL1		-0.1825
22		C		-1.9666		-2.9892		1.4665		C.3		1		UNL1		-0.1629
23		C		-3.3800		-3.1963		0.9828		C.3		1		UNL1		-0.3149
24		C		-3.1372		-2.6878		2.3805		C.3		1		UNL1		-0.3437
25		N		1.0543		-1.6344		-0.2401		N.ar		1		UNL1		-0.5158
26		C		3.1322		0.3178		0.4558		C.ar		1		UNL1		-0.1660
27		C		3.8077		1.3663		1.0678		C.ar		1		UNL1		-0.1561
28		H		6.4762		1.6442		-1.0308		H		1		UNL1		0.1563
29		H		5.2934		-0.2158		-2.1328		H		1		UNL1		0.1355
30		H		3.5987		-1.6980		-2.1820		H		1		UNL1		0.3467
31		H		0.4350		-4.5501		-2.6058		H		1		UNL1		0.1546
32		H		-1.2493		-4.0284		-0.8115		H		1		UNL1		0.1534
33		H		-0.7056		-1.7084		2.9377		H		1		UNL1		0.4009
34		H		-2.3628		-1.3949		-1.3487		H		1		UNL1		0.1437
35		H		-3.5382		0.6544		-2.0601		H		1		UNL1		0.1564
36		H		-2.3762		2.5936		1.5945		H		1		UNL1		0.1579
37		H		-1.1844		0.5364		2.3002		H		1		UNL1		0.1440
38		H		-1.4181		-3.8983		1.7071		H		1		UNL1		0.1594
39		H		-3.7184		-4.2210		0.8551		H		1		UNL1		0.1587
40		H		-3.7976		-2.4941		0.2690		H		1		UNL1		0.1711
41		H		-3.3173		-3.3538		3.2195		H		1		UNL1		0.1622
42		H		-3.3819		-1.6458		2.5707		H		1		UNL1		0.1689
43		H		2.2043		-0.0548		0.8663		H		1		UNL1		0.2103
44		H		3.3946		1.8115		1.9674		H		1		UNL1		0.1562
@<TRIPOS>BOND
1		31		10		1
2		30		7		1
3		29		5		1
4		9		10		ar
5		9		8		ar
6		35		17		1
7		10		11		ar
8		7		8		1
9		7		6		1
10		34		16		1
11		5		6		ar
12		5		4		ar
13		8		25		ar
14		17		16		ar
15		17		18		ar
16		28		4		1
17		11		32		1
18		11		12		ar
19		19		18		1
20		6		26		ar
21		16		15		ar
22		4		3		ar
23		18		20		ar
24		25		12		ar
25		12		13		1
26		40		23		1
27		26		43		1
28		26		27		ar
29		3		27		ar
30		3		2		1
31		15		13		1
32		15		21		ar
33		39		23		1
34		20		21		ar
35		20		36		1
36		23		22		1
37		23		24		1
38		13		22		1
39		13		14		1
40		27		44		1
41		2		1		3
42		21		37		1
43		22		38		1
44		22		24		1
45		14		33		1
46		24		42		1
47		24		41		1

