@<TRIPOS>MOLECULE
YZH-2014-BMC-3220-2-7q
 39 41 0 0 0
SMALL
MULLIKEN_CHARGES
****
Gaussian 16 #p B3LYP/6-31G* opt
@<TRIPOS>ATOM
1		C		0.3511		4.6542		1.0784		C.3		1		UNL1		-0.5511
2		C		-0.3249		3.3539		0.7275		C.ar		1		UNL1		0.1195
3		C		-1.6875		3.1606		0.9560		C.ar		1		UNL1		0.0236
4		N		-2.3559		2.0432		0.6589		N.ar		1		UNL1		-0.4707
5		C		-1.6271		1.0696		0.1002		C.ar		1		UNL1		0.6957
6		N		-2.2079		-0.1304		-0.2520		N.pl3		1		UNL1		-0.7669
7		C		-3.5155		-0.6078		-0.1537		C.ar		1		UNL1		0.3831
8		C		-4.5939		0.1297		0.3693		C.ar		1		UNL1		-0.1603
9		C		-5.8596		-0.4409		0.4207		C.ar		1		UNL1		-0.1529
10		C		-6.0889		-1.7474		-0.0409		C.ar		1		UNL1		0.1315
11		C		-7.3978		-2.3224		0.0187		C.1		1		UNL1		0.2277
12		N		-8.4623		-2.7913		0.0667		N.1		1		UNL1		-0.4840
13		C		-5.0097		-2.4824		-0.5631		C.ar		1		UNL1		-0.1401
14		C		-3.7459		-1.9193		-0.6172		C.ar		1		UNL1		-0.2055
15		N		-0.3089		1.1275		-0.1694		N.ar		1		UNL1		-0.5405
16		C		0.3308		2.2506		0.1405		C.ar		1		UNL1		0.3292
17		C		1.8195		2.3085		-0.1709		C.3		1		UNL1		-0.4169
18		CL		1.9997		3.1005		-1.8375		Cl		1		UNL1		-0.0654
19		C		2.5659		1.0009		-0.1026		C.ar		1		UNL1		0.2088
20		C		3.4585		0.7947		0.9548		C.ar		1		UNL1		-0.1786
21		C		4.1548		-0.4077		1.0876		C.ar		1		UNL1		-0.1464
22		C		3.9577		-1.4067		0.1395		C.ar		1		UNL1		0.0867
23		BR		4.9092		-3.0563		0.2989		Br		1		UNL1		-0.1222
24		C		3.0822		-1.2213		-0.9314		C.ar		1		UNL1		-0.1591
25		C		2.3886		-0.0202		-1.0460		C.ar		1		UNL1		-0.1330
26		H		0.8465		5.1009		0.2089		H		1		UNL1		0.1899
27		H		-0.3822		5.3759		1.4515		H		1		UNL1		0.1686
28		H		1.1102		4.5291		1.8616		H		1		UNL1		0.1671
29		H		-2.2783		3.9567		1.4085		H		1		UNL1		0.1517
30		H		-1.5310		-0.7689		-0.6500		H		1		UNL1		0.3478
31		H		-4.4266		1.1351		0.7274		H		1		UNL1		0.1885
32		H		-6.6870		0.1335		0.8253		H		1		UNL1		0.1586
33		H		-5.1704		-3.4932		-0.9237		H		1		UNL1		0.1590
34		H		-2.9190		-2.4977		-1.0229		H		1		UNL1		0.1376
35		H		2.2936		3.0246		0.5000		H		1		UNL1		0.2013
36		H		3.6181		1.5790		1.6910		H		1		UNL1		0.1396
37		H		4.8448		-0.5597		1.9101		H		1		UNL1		0.1590
38		H		2.9490		-2.0073		-1.6667		H		1		UNL1		0.1580
39		H		1.7127		0.1314		-1.8795		H		1		UNL1		0.1608
@<TRIPOS>BOND
1		39		25		1
2		18		17		1
3		38		24		1
4		25		24		ar
5		25		19		ar
6		34		14		1
7		24		22		ar
8		33		13		1
9		30		6		1
10		14		13		ar
11		14		7		ar
12		13		10		ar
13		6		7		1
14		6		5		1
15		17		19		1
16		17		16		1
17		17		35		1
18		15		5		ar
19		15		16		ar
20		7		8		ar
21		19		20		ar
22		10		11		1
23		10		9		ar
24		11		12		3
25		5		4		ar
26		22		23		1
27		22		21		ar
28		16		2		ar
29		26		1		1
30		8		9		ar
31		8		31		1
32		9		32		1
33		4		3		ar
34		2		3		ar
35		2		1		1
36		20		21		ar
37		20		36		1
38		3		29		1
39		1		27		1
40		1		28		1
41		21		37		1

