@<TRIPOS>MOLECULE
YZH-2014-BMC-2535-2-3k
 43 45 0 0 0
SMALL
MULLIKEN_CHARGES
****
Gaussian 16 #p B3LYP/6-31G* opt
@<TRIPOS>ATOM
1		C		-2.3565		2.2945		1.6630		C.3		1		UNL1		-0.5256
2		C		-1.1767		1.6614		0.9704		C.ar		1		UNL1		0.1161
3		C		0.0782		1.6770		1.5782		C.ar		1		UNL1		0.0149
4		N		1.1901		1.1380		1.0647		N.ar		1		UNL1		-0.4714
5		C		1.0343		0.5435		-0.1197		C.ar		1		UNL1		0.6874
6		N		2.1039		-0.0581		-0.7553		N.pl3		1		UNL1		-0.7669
7		C		3.4453		-0.2011		-0.4042		C.ar		1		UNL1		0.3834
8		C		4.2703		-0.8894		-1.3180		C.ar		1		UNL1		-0.2066
9		C		5.6166		-1.0819		-1.0580		C.ar		1		UNL1		-0.1404
10		C		6.1844		-0.5896		0.1308		C.ar		1		UNL1		0.1305
11		C		7.5748		-0.7843		0.4061		C.1		1		UNL1		0.2268
12		N		8.7065		-0.9434		0.6284		N.1		1		UNL1		-0.4854
13		C		5.3631		0.0959		1.0412		C.ar		1		UNL1		-0.1533
14		C		4.0117		0.2925		0.7864		C.ar		1		UNL1		-0.1615
15		N		-0.1176		0.4566		-0.8141		N.ar		1		UNL1		-0.5681
16		C		-1.2112		1.0085		-0.2864		C.ar		1		UNL1		0.2621
17		C		-2.5022		0.8904		-1.1251		C.3		1		UNL1		0.1968
18		C		-2.2186		0.4175		-2.5611		C.3		1		UNL1		-0.4442
19		O		-3.1394		2.1757		-1.1809		O.3		1		UNL1		-0.6474
20		C		-3.4870		-0.0752		-0.4558		C.ar		1		UNL1		0.1098
21		C		-4.8392		0.2575		-0.3116		C.ar		1		UNL1		-0.1757
22		C		-5.7422		-0.6488		0.2467		C.ar		1		UNL1		-0.1988
23		C		-5.2787		-1.8924		0.6559		C.ar		1		UNL1		0.3831
24		F		-6.1466		-2.7726		1.1977		F		1		UNL1		-0.2969
25		C		-3.9430		-2.2555		0.5247		C.ar		1		UNL1		-0.2031
26		C		-3.0529		-1.3395		-0.0330		C.ar		1		UNL1		-0.1767
27		H		-2.0699		2.6200		2.6687		H		1		UNL1		0.1494
28		H		-3.1921		1.5939		1.7581		H		1		UNL1		0.1783
29		H		-2.7349		3.1586		1.1107		H		1		UNL1		0.1789
30		H		0.1966		2.1560		2.5499		H		1		UNL1		0.1482
31		H		1.8306		-0.4619		-1.6419		H		1		UNL1		0.3430
32		H		3.8427		-1.2749		-2.2408		H		1		UNL1		0.1349
33		H		6.2375		-1.6137		-1.7717		H		1		UNL1		0.1573
34		H		5.7930		0.4792		1.9613		H		1		UNL1		0.1579
35		H		3.3868		0.8209		1.4917		H		1		UNL1		0.1891
36		H		-1.7844		-0.5835		-2.5805		H		1		UNL1		0.1652
37		H		-1.5132		1.0921		-3.0608		H		1		UNL1		0.1392
38		H		-3.1632		0.4088		-3.1128		H		1		UNL1		0.1601
39		H		-2.5984		2.7351		-1.7607		H		1		UNL1		0.3985
40		H		-5.1827		1.2325		-0.6362		H		1		UNL1		0.1645
41		H		-6.7921		-0.4017		0.3665		H		1		UNL1		0.1490
42		H		-3.6169		-3.2356		0.8568		H		1		UNL1		0.1496
43		H		-2.0074		-1.6157		-0.1384		H		1		UNL1		0.1477
@<TRIPOS>BOND
1		38		18		1
2		37		18		1
3		36		18		1
4		18		17		1
5		32		8		1
6		33		9		1
7		39		19		1
8		31		6		1
9		8		9		ar
10		8		7		ar
11		19		17		1
12		17		20		1
13		17		16		1
14		9		10		ar
15		15		16		ar
16		15		5		ar
17		6		7		1
18		6		5		1
19		40		21		1
20		20		21		ar
21		20		26		ar
22		7		14		ar
23		21		22		ar
24		16		2		ar
25		43		26		1
26		5		4		ar
27		26		25		ar
28		10		11		1
29		10		13		ar
30		22		41		1
31		22		23		ar
32		11		12		3
33		25		23		ar
34		25		42		1
35		23		24		1
36		14		13		ar
37		14		35		1
38		2		3		ar
39		2		1		1
40		13		34		1
41		4		3		ar
42		29		1		1
43		3		30		1
44		1		28		1
45		1		27		1

