@<TRIPOS>MOLECULE
YZH-2014-BMC-2535-2-3q
 55 57 0 0 0
SMALL
MULLIKEN_CHARGES
****
Gaussian 16 #p B3LYP/6-31G* opt
@<TRIPOS>ATOM
1		C		1.2991		2.3454		2.1553		C.3		1		UNL1		-0.5269
2		C		0.1682		1.7815		1.3334		C.ar		1		UNL1		0.1174
3		C		-1.0390		1.4478		1.9454		C.ar		1		UNL1		0.0139
4		N		-2.1033		0.9304		1.3199		N.ar		1		UNL1		-0.4724
5		C		-1.9451		0.7307		0.0104		C.ar		1		UNL1		0.6869
6		N		-2.9668		0.1949		-0.7521		N.pl3		1		UNL1		-0.7671
7		C		-4.2544		-0.2294		-0.4308		C.ar		1		UNL1		0.3839
8		C		-5.0390		-0.7352		-1.4884		C.ar		1		UNL1		-0.2066
9		C		-6.3312		-1.1808		-1.2679		C.ar		1		UNL1		-0.1406
10		C		-6.8841		-1.1351		0.0245		C.ar		1		UNL1		0.1301
11		C		-8.2186		-1.5937		0.2598		C.1		1		UNL1		0.2262
12		N		-9.3049		-1.9673		0.4496		N.1		1		UNL1		-0.4863
13		C		-6.1031		-0.6316		1.0781		C.ar		1		UNL1		-0.1535
14		C		-4.8061		-0.1828		0.8637		C.ar		1		UNL1		-0.1617
15		N		-0.8366		1.0087		-0.7035		N.ar		1		UNL1		-0.5682
16		C		0.2093		1.5300		-0.0606		C.ar		1		UNL1		0.2646
17		C		1.4519		1.8400		-0.9226		C.3		1		UNL1		0.1957
18		C		1.1490		1.7513		-2.4280		C.3		1		UNL1		-0.4444
19		O		1.9038		3.1696		-0.6213		O.3		1		UNL1		-0.6467
20		C		2.5937		0.8792		-0.5765		C.ar		1		UNL1		0.1131
21		C		2.3661		-0.5031		-0.5328		C.ar		1		UNL1		-0.1802
22		C		3.4075		-1.3888		-0.2748		C.ar		1		UNL1		-0.1951
23		C		4.7209		-0.9411		-0.0479		C.ar		1		UNL1		0.1856
24		C		5.8427		-1.9556		0.2374		C.3		1		UNL1		0.0165
25		C		7.2064		-1.2740		0.4579		C.3		1		UNL1		-0.4571
26		C		5.4958		-2.7624		1.5113		C.3		1		UNL1		-0.4389
27		C		5.9772		-2.9250		-0.9611		C.3		1		UNL1		-0.4389
28		C		4.9334		0.4421		-0.0957		C.ar		1		UNL1		-0.1990
29		C		3.8930		1.3390		-0.3561		C.ar		1		UNL1		-0.1797
30		H		1.5400		3.3704		1.8620		H		1		UNL1		0.1791
31		H		1.0306		2.3378		3.2171		H		1		UNL1		0.1472
32		H		2.2165		1.7613		2.0315		H		1		UNL1		0.1808
33		H		-1.1579		1.6058		3.0171		H		1		UNL1		0.1466
34		H		-2.6975		0.1050		-1.7233		H		1		UNL1		0.3428
35		H		-4.6225		-0.7757		-2.4924		H		1		UNL1		0.1345
36		H		-6.9212		-1.5671		-2.0928		H		1		UNL1		0.1566
37		H		-6.5217		-0.5926		2.0789		H		1		UNL1		0.1572
38		H		-4.2118		0.2031		1.6793		H		1		UNL1		0.1890
39		H		0.3307		2.4283		-2.7016		H		1		UNL1		0.1370
40		H		0.8533		0.7432		-2.7232		H		1		UNL1		0.1647
41		H		2.0519		2.0347		-2.9767		H		1		UNL1		0.1596
42		H		1.2562		3.7815		-1.0058		H		1		UNL1		0.3968
43		H		1.3654		-0.8932		-0.7012		H		1		UNL1		0.1361
44		H		3.1862		-2.4522		-0.2486		H		1		UNL1		0.1268
45		H		7.9707		-2.0339		0.6558		H		1		UNL1		0.1422
46		H		7.1884		-0.5929		1.3164		H		1		UNL1		0.1457
47		H		7.5262		-0.7061		-0.4231		H		1		UNL1		0.1460
48		H		4.5528		-3.3086		1.4044		H		1		UNL1		0.1431
49		H		5.4024		-2.1014		2.3805		H		1		UNL1		0.1470
50		H		6.2832		-3.4956		1.7248		H		1		UNL1		0.1397
51		H		6.2314		-2.3814		-1.8783		H		1		UNL1		0.1475
52		H		5.0495		-3.4766		-1.1461		H		1		UNL1		0.1427
53		H		6.7692		-3.6595		-0.7705		H		1		UNL1		0.1397
54		H		5.9254		0.8474		0.0715		H		1		UNL1		0.1280
55		H		4.0921		2.4041		-0.3857		H		1		UNL1		0.1530
@<TRIPOS>BOND
1		41		18		1
2		40		18		1
3		39		18		1
4		35		8		1
5		18		17		1
6		36		9		1
7		51		27		1
8		34		6		1
9		8		9		ar
10		8		7		ar
11		9		10		ar
12		52		27		1
13		42		19		1
14		27		53		1
15		27		24		1
16		17		19		1
17		17		20		1
18		17		16		1
19		6		7		1
20		6		5		1
21		15		16		ar
22		15		5		ar
23		43		21		1
24		20		21		ar
25		20		29		ar
26		21		22		ar
27		7		14		ar
28		47		25		1
29		55		29		1
30		29		28		ar
31		22		44		1
32		22		23		ar
33		28		23		ar
34		28		54		1
35		16		2		ar
36		23		24		1
37		5		4		ar
38		10		11		1
39		10		13		ar
40		24		25		1
41		24		26		1
42		11		12		3
43		25		45		1
44		25		46		1
45		14		13		ar
46		14		38		1
47		13		37		1
48		4		3		ar
49		2		3		ar
50		2		1		1
51		48		26		1
52		26		50		1
53		26		49		1
54		30		1		1
55		3		33		1
56		32		1		1
57		1		31		1

