@<TRIPOS>MOLECULE
YZH-2014-BMC-3220-2-7g
 36 38 0 0 0
SMALL
MULLIKEN_CHARGES
****
Gaussian 16 #p B3LYP/6-31G* opt
@<TRIPOS>ATOM
1		N		8.9094		-1.7106		-0.0589		N.1		1		UNL1		-0.4831
2		C		7.8170		-1.3221		0.0453		C.1		1		UNL1		0.2283
3		C		6.4744		-0.8446		0.1756		C.ar		1		UNL1		0.1321
4		C		5.7053		-0.5520		-0.9625		C.ar		1		UNL1		-0.1528
5		C		4.4005		-0.0876		-0.8504		C.ar		1		UNL1		-0.1592
6		C		3.8317		0.0959		0.4233		C.ar		1		UNL1		0.3822
7		N		2.5328		0.5569		0.6493		N.pl3		1		UNL1		-0.7645
8		C		1.5175		0.9330		-0.2016		C.ar		1		UNL1		0.6946
9		N		1.6923		0.8848		-1.5303		N.ar		1		UNL1		-0.4722
10		C		0.6458		1.2785		-2.2618		C.ar		1		UNL1		0.0716
11		C		-0.5569		1.7122		-1.7128		C.ar		1		UNL1		-0.1999
12		C		-0.6270		1.7140		-0.3159		C.ar		1		UNL1		0.3506
13		C		-1.8599		2.0964		0.4900		C.3		1		UNL1		-0.3873
14		CL		-2.8927		3.3242		-0.4066		Cl		1		UNL1		-0.0602
15		C		-2.6995		0.9079		0.9092		C.ar		1		UNL1		0.1985
16		C		-3.0984		0.7848		2.2442		C.ar		1		UNL1		-0.1688
17		C		-3.8755		-0.3000		2.6510		C.ar		1		UNL1		-0.1294
18		C		-4.2652		-1.2742		1.7328		C.ar		1		UNL1		-0.1419
19		C		-3.8629		-1.1423		0.4039		C.ar		1		UNL1		0.0805
20		BR		-4.3853		-2.4711		-0.8678		Br		1		UNL1		-0.1194
21		C		-3.0871		-0.0681		-0.0179		C.ar		1		UNL1		-0.1773
22		N		0.4011		1.3328		0.4420		N.ar		1		UNL1		-0.5357
23		C		4.6035		-0.1979		1.5657		C.ar		1		UNL1		-0.2052
24		C		5.9034		-0.6606		1.4474		C.ar		1		UNL1		-0.1400
25		H		6.1384		-0.6914		-1.9480		H		1		UNL1		0.1598
26		H		3.8157		0.1346		-1.7310		H		1		UNL1		0.1898
27		H		2.2552		0.6407		1.6191		H		1		UNL1		0.3477
28		H		0.7829		1.2454		-3.3411		H		1		UNL1		0.1621
29		H		-1.3799		2.0457		-2.3311		H		1		UNL1		0.1737
30		H		-1.5144		2.6217		1.3803		H		1		UNL1		0.2137
31		H		-2.8018		1.5405		2.9664		H		1		UNL1		0.1433
32		H		-4.1812		-0.3896		3.6894		H		1		UNL1		0.1491
33		H		-4.8689		-2.1214		2.0391		H		1		UNL1		0.1612
34		H		-2.7883		0.0061		-1.0575		H		1		UNL1		0.1612
35		H		4.1725		-0.0595		2.5546		H		1		UNL1		0.1376
36		H		6.4848		-0.8823		2.3364		H		1		UNL1		0.1593
@<TRIPOS>BOND
1		28		10		1
2		29		11		1
3		10		11		ar
4		10		9		ar
5		25		4		1
6		26		5		1
7		11		12		ar
8		9		8		ar
9		34		21		1
10		4		5		ar
11		4		3		ar
12		20		19		1
13		5		6		ar
14		14		13		1
15		12		22		ar
16		12		13		1
17		8		22		ar
18		8		7		1
19		1		2		3
20		21		19		ar
21		21		15		ar
22		2		3		1
23		3		24		ar
24		19		18		ar
25		6		7		1
26		6		23		ar
27		13		15		1
28		13		30		1
29		7		27		1
30		15		16		ar
31		24		23		ar
32		24		36		1
33		23		35		1
34		18		33		1
35		18		17		ar
36		16		17		ar
37		16		31		1
38		17		32		1

