@<TRIPOS>MOLECULE
YZH-2014-BMC-2535-2-3m
 46 49 0 0 0
SMALL
MULLIKEN_CHARGES
****
Gaussian 16 #p B3LYP/6-31G* opt
@<TRIPOS>ATOM
1		C		2.0478		1.0954		1.9815		C.3		1		UNL1		-0.4503
2		C		2.1232		1.1394		0.4429		C.3		1		UNL1		0.2077
3		O		2.8822		2.3170		0.1088		O.3		1		UNL1		-0.6406
4		C		0.6905		1.3406		-0.0950		C.ar		1		UNL1		0.2894
5		C		0.3935		2.3367		-1.0341		C.ar		1		UNL1		-0.1929
6		C		-0.9348		2.4461		-1.4264		C.ar		1		UNL1		0.0699
7		N		-1.9126		1.6662		-0.9517		N.ar		1		UNL1		-0.4761
8		C		-1.5252		0.7533		-0.0512		C.ar		1		UNL1		0.6886
9		N		-2.4482		-0.1024		0.5156		N.pl3		1		UNL1		-0.7671
10		C		-3.8263		-0.2447		0.3528		C.ar		1		UNL1		0.3829
11		C		-4.6095		0.5370		-0.5170		C.ar		1		UNL1		-0.1602
12		C		-5.9775		0.3113		-0.6048		C.ar		1		UNL1		-0.1533
13		C		-6.6020		-0.6873		0.1606		C.ar		1		UNL1		0.1309
14		C		-8.0118		-0.9092		0.0594		C.1		1		UNL1		0.2271
15		N		-9.1588		-1.0911		-0.0222		N.1		1		UNL1		-0.4851
16		C		-5.8175		-1.4670		1.0292		C.ar		1		UNL1		-0.1404
17		C		-4.4535		-1.2469		1.1213		C.ar		1		UNL1		-0.2062
18		N		-0.2694		0.5531		0.3971		N.ar		1		UNL1		-0.5418
19		C		2.8124		-0.1209		-0.1302		C.ar		1		UNL1		0.0418
20		C		2.0848		-1.0630		-0.8345		C.ar		1		UNL1		-0.1876
21		C		2.6709		-2.2409		-1.3514		C.ar		1		UNL1		-0.1373
22		C		4.0060		-2.4858		-1.1600		C.ar		1		UNL1		-0.1842
23		C		4.8107		-1.5564		-0.4505		C.ar		1		UNL1		0.1334
24		C		6.1941		-1.8157		-0.2549		C.ar		1		UNL1		-0.1943
25		C		6.9971		-0.9307		0.4241		C.ar		1		UNL1		-0.1307
26		C		6.4382		0.2640		0.9296		C.ar		1		UNL1		-0.1380
27		C		5.1010		0.5495		0.7571		C.ar		1		UNL1		-0.2146
28		C		4.2275		-0.3482		0.0710		C.ar		1		UNL1		0.0668
29		H		1.6891		2.0611		2.3532		H		1		UNL1		0.1575
30		H		1.3501		0.3168		2.2942		H		1		UNL1		0.1733
31		H		3.0287		0.8945		2.4147		H		1		UNL1		0.1602
32		H		3.3278		2.1516		-0.7374		H		1		UNL1		0.3991
33		H		1.1546		3.0051		-1.4108		H		1		UNL1		0.1482
34		H		-1.2402		3.1961		-2.1542		H		1		UNL1		0.1552
35		H		-2.0121		-0.7308		1.1785		H		1		UNL1		0.3455
36		H		-4.1368		1.3074		-1.1087		H		1		UNL1		0.1891
37		H		-6.5755		0.9180		-1.2775		H		1		UNL1		0.1580
38		H		-6.2847		-2.2423		1.6277		H		1		UNL1		0.1578
39		H		-3.8574		-1.8562		1.7968		H		1		UNL1		0.1367
40		H		1.0234		-0.9181		-0.9864		H		1		UNL1		0.1442
41		H		2.0510		-2.9469		-1.8968		H		1		UNL1		0.1345
42		H		4.4689		-3.3904		-1.5470		H		1		UNL1		0.1338
43		H		6.6063		-2.7377		-0.6584		H		1		UNL1		0.1325
44		H		8.0530		-1.1427		0.5675		H		1		UNL1		0.1334
45		H		7.0703		0.9725		1.4582		H		1		UNL1		0.1333
46		H		4.7113		1.4872		1.1286		H		1		UNL1		0.1698
@<TRIPOS>BOND
1		34		6		1
2		41		21		1
3		42		22		1
4		6		5		ar
5		6		7		ar
6		33		5		1
7		21		22		ar
8		21		20		ar
9		37		12		1
10		22		23		ar
11		36		11		1
12		5		4		ar
13		40		20		1
14		7		8		ar
15		20		19		ar
16		32		3		1
17		43		24		1
18		12		11		ar
19		12		13		ar
20		11		10		ar
21		23		24		ar
22		23		28		ar
23		24		25		ar
24		19		28		ar
25		19		2		1
26		4		18		ar
27		4		2		1
28		8		18		ar
29		8		9		1
30		15		14		3
31		14		13		1
32		28		27		ar
33		3		2		1
34		13		16		ar
35		10		9		1
36		10		17		ar
37		25		44		1
38		25		26		ar
39		2		1		1
40		9		35		1
41		27		26		ar
42		27		46		1
43		26		45		1
44		16		17		ar
45		16		38		1
46		17		39		1
47		1		30		1
48		1		29		1
49		1		31		1

