@<TRIPOS>MOLECULE
YZH-2014-BMC-3220-2-7s
 39 41 0 0 0
SMALL
MULLIKEN_CHARGES
****
Gaussian 16 #p B3LYP/6-31G* opt
@<TRIPOS>ATOM
1		C		-4.8572		4.2909		0.8175		C.3		1		UNL1		-0.5319
2		C		-4.2114		2.9851		0.4193		C.ar		1		UNL1		0.1816
3		C		-3.9820		1.9790		1.3721		C.ar		1		UNL1		-0.1774
4		C		-3.4027		0.7672		1.0159		C.ar		1		UNL1		-0.1598
5		C		-3.0284		0.5205		-0.3131		C.ar		1		UNL1		0.1939
6		C		-2.3616		-0.7667		-0.7268		C.3		1		UNL1		-0.2966
7		BR		-3.6166		-2.3131		-0.4847		Br		1		UNL1		-0.1322
8		C		-1.0464		-1.0285		-0.0112		C.ar		1		UNL1		0.3470
9		C		-0.9109		-1.7626		1.1729		C.ar		1		UNL1		-0.1971
10		C		0.3695		-1.8273		1.7092		C.ar		1		UNL1		0.0690
11		N		1.4353		-1.2427		1.1515		N.ar		1		UNL1		-0.4744
12		C		1.1945		-0.5765		0.0141		C.ar		1		UNL1		0.6940
13		N		2.2204		0.0556		-0.6553		N.pl3		1		UNL1		-0.7650
14		C		3.5871		0.1681		-0.3963		C.ar		1		UNL1		0.3828
15		C		4.2364		-0.4054		0.7127		C.ar		1		UNL1		-0.1597
16		C		5.6051		-0.2317		0.8767		C.ar		1		UNL1		-0.1530
17		C		6.3611		0.5092		-0.0465		C.ar		1		UNL1		0.1314
18		C		7.7700		0.6805		0.1352		C.1		1		UNL1		0.2276
19		N		8.9163		0.8210		0.2819		N.1		1		UNL1		-0.4843
20		C		5.7101		1.0811		-1.1540		C.ar		1		UNL1		-0.1403
21		C		4.3462		0.9116		-1.3230		C.ar		1		UNL1		-0.2053
22		N		-0.0015		-0.4427		-0.5962		N.ar		1		UNL1		-0.5406
23		C		-3.2543		1.5163		-1.2673		C.ar		1		UNL1		-0.1747
24		C		-3.8363		2.7317		-0.9034		C.ar		1		UNL1		-0.1821
25		H		-4.8225		5.0202		0.0023		H		1		UNL1		0.1589
26		H		-4.3596		4.7342		1.6882		H		1		UNL1		0.1651
27		H		-5.9109		4.1465		1.0889		H		1		UNL1		0.1699
28		H		-4.2649		2.1505		2.4083		H		1		UNL1		0.1303
29		H		-3.2458		0.0031		1.7718		H		1		UNL1		0.1385
30		H		-2.1638		-0.7569		-1.7971		H		1		UNL1		0.2018
31		H		-1.7501		-2.2722		1.6276		H		1		UNL1		0.1689
32		H		0.5587		-2.3763		2.6299		H		1		UNL1		0.1587
33		H		1.8874		0.5194		-1.4911		H		1		UNL1		0.3471
34		H		3.6619		-0.9764		1.4275		H		1		UNL1		0.1894
35		H		6.0997		-0.6768		1.7343		H		1		UNL1		0.1587
36		H		6.2802		1.6563		-1.8763		H		1		UNL1		0.1583
37		H		3.8537		1.3587		-2.1835		H		1		UNL1		0.1370
38		H		-2.9706		1.3448		-2.3027		H		1		UNL1		0.1349
39		H		-4.0015		3.4924		-1.6626		H		1		UNL1		0.1297
@<TRIPOS>BOND
1		38		23		1
2		37		21		1
3		36		20		1
4		30		6		1
5		39		24		1
6		33		13		1
7		21		20		ar
8		21		14		ar
9		23		24		ar
10		23		5		ar
11		20		17		ar
12		24		2		ar
13		6		7		1
14		6		5		1
15		6		8		1
16		13		14		1
17		13		12		1
18		22		8		ar
19		22		12		ar
20		14		15		ar
21		5		4		ar
22		17		18		1
23		17		16		ar
24		8		9		ar
25		25		1		1
26		12		11		ar
27		18		19		3
28		2		1		1
29		2		3		ar
30		15		16		ar
31		15		34		1
32		1		27		1
33		1		26		1
34		16		35		1
35		4		3		ar
36		4		29		1
37		11		10		ar
38		9		31		1
39		9		10		ar
40		3		28		1
41		10		32		1

