@<TRIPOS>MOLECULE
YZH-2014-BMC-3220-2-7d
 48 50 0 0 0
SMALL
MULLIKEN_CHARGES
****
Gaussian 16 #p B3LYP/6-31G* opt
@<TRIPOS>ATOM
1		C		6.5460		-1.7605		-1.1239		C.3		1		UNL1		-0.4399
2		C		5.3427		-2.3250		-0.3313		C.3		1		UNL1		0.0137
3		C		5.8830		-3.0163		0.9348		C.3		1		UNL1		-0.4585
4		C		4.6168		-3.3887		-1.1894		C.3		1		UNL1		-0.4398
5		C		4.3672		-1.1814		-0.0022		C.ar		1		UNL1		0.1856
6		C		3.7763		-0.4403		-1.0425		C.ar		1		UNL1		-0.1882
7		C		2.8899		0.5998		-0.7899		C.ar		1		UNL1		-0.1628
8		C		2.5559		0.9471		0.5261		C.ar		1		UNL1		0.2056
9		C		1.5976		2.0717		0.8415		C.3		1		UNL1		-0.3897
10		CL		2.3996		3.7095		0.5667		Cl		1		UNL1		-0.0743
11		C		0.2807		1.9767		0.0859		C.ar		1		UNL1		0.3537
12		C		0.0077		2.6227		-1.1252		C.ar		1		UNL1		-0.1974
13		C		-1.2370		2.3645		-1.6885		C.ar		1		UNL1		0.0694
14		N		-2.1464		1.5566		-1.1336		N.ar		1		UNL1		-0.4740
15		C		-1.7834		0.9967		0.0290		C.ar		1		UNL1		0.6929
16		N		-2.6448		0.1520		0.6954		N.pl3		1		UNL1		-0.7647
17		C		-3.9365		-0.2940		0.4114		C.ar		1		UNL1		0.3827
18		C		-4.5187		-1.1767		1.3440		C.ar		1		UNL1		-0.2054
19		C		-5.7963		-1.6752		1.1520		C.ar		1		UNL1		-0.1402
20		C		-6.5356		-1.3043		0.0148		C.ar		1		UNL1		0.1315
21		C		-7.8561		-1.8157		-0.1909		C.1		1		UNL1		0.2276
22		N		-8.9302		-2.2328		-0.3570		N.1		1		UNL1		-0.4843
23		C		-5.9558		-0.4249		-0.9143		C.ar		1		UNL1		-0.1530
24		C		-4.6745		0.0787		-0.7273		C.ar		1		UNL1		-0.1597
25		N		-0.6083		1.1714		0.6676		N.ar		1		UNL1		-0.5352
26		C		3.1352		0.2209		1.5679		C.ar		1		UNL1		-0.1787
27		C		4.0235		-0.8246		1.3076		C.ar		1		UNL1		-0.1952
28		H		6.2334		-1.2917		-2.0627		H		1		UNL1		0.1443
29		H		7.2489		-2.5652		-1.3713		H		1		UNL1		0.1422
30		H		7.0840		-1.0074		-0.5371		H		1		UNL1		0.1505
31		H		6.4370		-2.3208		1.5754		H		1		UNL1		0.1476
32		H		5.0796		-3.4655		1.5297		H		1		UNL1		0.1463
33		H		6.5706		-3.8204		0.6500		H		1		UNL1		0.1450
34		H		3.7626		-3.8128		-0.6494		H		1		UNL1		0.1488
35		H		5.3022		-4.2077		-1.4386		H		1		UNL1		0.1425
36		H		4.2434		-2.9702		-2.1299		H		1		UNL1		0.1441
37		H		4.0109		-0.6796		-2.0757		H		1		UNL1		0.1321
38		H		2.4563		1.1461		-1.6228		H		1		UNL1		0.1362
39		H		1.3621		2.0577		1.9056		H		1		UNL1		0.2107
40		H		0.7147		3.2992		-1.5871		H		1		UNL1		0.1712
41		H		-1.5269		2.8271		-2.6303		H		1		UNL1		0.1590
42		H		-2.2333		-0.1967		1.5520		H		1		UNL1		0.3475
43		H		-3.9565		-1.4707		2.2274		H		1		UNL1		0.1372
44		H		-6.2302		-2.3537		1.8793		H		1		UNL1		0.1584
45		H		-6.5196		-0.1333		-1.7948		H		1		UNL1		0.1587
46		H		-4.2356		0.7544		-1.4469		H		1		UNL1		0.1893
47		H		2.8940		0.4718		2.5981		H		1		UNL1		0.1335
48		H		4.4472		-1.3600		2.1497		H		1		UNL1		0.1333
@<TRIPOS>BOND
1		41		13		1
2		36		4		1
3		37		6		1
4		28		1		1
5		45		23		1
6		13		14		ar
7		13		12		ar
8		38		7		1
9		40		12		1
10		46		24		1
11		35		4		1
12		29		1		1
13		4		34		1
14		4		2		1
15		14		15		ar
16		12		11		ar
17		1		30		1
18		1		2		1
19		6		7		ar
20		6		5		ar
21		23		24		ar
22		23		20		ar
23		7		8		ar
24		24		17		ar
25		22		21		3
26		2		5		1
27		2		3		1
28		21		20		1
29		5		27		ar
30		20		19		ar
31		15		25		ar
32		15		16		1
33		11		25		ar
34		11		9		1
35		17		16		1
36		17		18		ar
37		8		9		1
38		8		26		ar
39		10		9		1
40		33		3		1
41		16		42		1
42		9		39		1
43		3		32		1
44		3		31		1
45		19		18		ar
46		19		44		1
47		27		26		ar
48		27		48		1
49		18		43		1
50		26		47		1

