@<TRIPOS>MOLECULE
YZH-2014-BMC-3220-2-7k
 42 45 0 0 0
SMALL
MULLIKEN_CHARGES
****
Gaussian 16 #p B3LYP/6-31G* opt
@<TRIPOS>ATOM
1		N		8.5697		1.9224		-0.2094		N.1		1		UNL1		-0.4837
2		C		7.4750		1.5409		-0.1025		C.1		1		UNL1		0.2280
3		C		6.1291		1.0734		0.0298		C.ar		1		UNL1		0.1318
4		C		5.5860		0.1814		-0.9093		C.ar		1		UNL1		-0.1529
5		C		4.2805		-0.2798		-0.7936		C.ar		1		UNL1		-0.1592
6		C		3.4805		0.1498		0.2812		C.ar		1		UNL1		0.3822
7		N		2.1578		-0.2464		0.4892		N.pl3		1		UNL1		-0.7659
8		C		1.3234		-1.1028		-0.1947		C.ar		1		UNL1		0.6940
9		N		1.7616		-1.7460		-1.2878		N.ar		1		UNL1		-0.4734
10		C		0.8758		-2.5609		-1.8671		C.ar		1		UNL1		0.0790
11		C		-0.4149		-2.7507		-1.3858		C.ar		1		UNL1		-0.2021
12		C		-0.7663		-2.0230		-0.2411		C.ar		1		UNL1		0.3720
13		C		-2.1700		-2.1462		0.3245		C.3		1		UNL1		-0.3958
14		CL		-2.0842		-2.5325		2.1249		Cl		1		UNL1		-0.0596
15		C		-3.0681		-0.9573		0.0633		C.ar		1		UNL1		0.1737
16		C		-4.3699		-1.1947		-0.4560		C.ar		1		UNL1		-0.1787
17		C		-5.2292		-0.1522		-0.7116		C.ar		1		UNL1		-0.1922
18		C		-4.8407		1.1902		-0.4612		C.ar		1		UNL1		0.1430
19		C		-5.6998		2.2931		-0.7134		C.ar		1		UNL1		-0.1914
20		C		-5.2862		3.5803		-0.4552		C.ar		1		UNL1		-0.1323
21		C		-3.9918		3.8255		0.0682		C.ar		1		UNL1		-0.1361
22		C		-3.1360		2.7786		0.3228		C.ar		1		UNL1		-0.1844
23		C		-3.5314		1.4367		0.0674		C.ar		1		UNL1		0.1370
24		C		-2.6680		0.3404		0.3183		C.ar		1		UNL1		-0.2314
25		N		0.0948		-1.1995		0.3516		N.ar		1		UNL1		-0.5246
26		C		4.0259		1.0445		1.2243		C.ar		1		UNL1		-0.2055
27		C		5.3279		1.5006		1.1036		C.ar		1		UNL1		-0.1401
28		H		6.1978		-0.1538		-1.7408		H		1		UNL1		0.1590
29		H		3.8714		-0.9676		-1.5192		H		1		UNL1		0.1889
30		H		1.7023		0.1415		1.3059		H		1		UNL1		0.3497
31		H		1.2242		-3.0886		-2.7533		H		1		UNL1		0.1595
32		H		-1.1079		-3.4273		-1.8725		H		1		UNL1		0.1511
33		H		-2.6302		-3.0355		-0.1080		H		1		UNL1		0.1955
34		H		-4.6873		-2.2169		-0.6476		H		1		UNL1		0.1317
35		H		-6.2221		-0.3470		-1.1096		H		1		UNL1		0.1361
36		H		-6.6926		2.1027		-1.1144		H		1		UNL1		0.1340
37		H		-5.9523		4.4159		-0.6516		H		1		UNL1		0.1356
38		H		-3.6786		4.8465		0.2679		H		1		UNL1		0.1354
39		H		-2.1427		2.9631		0.7247		H		1		UNL1		0.1332
40		H		-1.6779		0.5284		0.7214		H		1		UNL1		0.1607
41		H		3.4160		1.3812		2.0595		H		1		UNL1		0.1387
42		H		5.7332		2.1888		1.8382		H		1		UNL1		0.1592
@<TRIPOS>BOND
1		31		10		1
2		32		11		1
3		10		11		ar
4		10		9		ar
5		28		4		1
6		29		5		1
7		11		12		ar
8		9		8		ar
9		36		19		1
10		35		17		1
11		4		5		ar
12		4		3		ar
13		5		6		ar
14		19		18		ar
15		19		20		ar
16		17		18		ar
17		17		16		ar
18		37		20		1
19		34		16		1
20		18		23		ar
21		16		15		ar
22		20		21		ar
23		12		13		1
24		12		25		ar
25		1		2		3
26		8		25		ar
27		8		7		1
28		33		13		1
29		2		3		1
30		3		27		ar
31		15		24		ar
32		15		13		1
33		23		24		ar
34		23		22		ar
35		21		38		1
36		21		22		ar
37		6		7		1
38		6		26		ar
39		24		40		1
40		22		39		1
41		13		14		1
42		7		30		1
43		27		26		ar
44		27		42		1
45		26		41		1

