#	Name:			CFE-2008-ZL-23
#	Creating user name:	Administrator
#	Creation time:		Sun Jul 05 17:10:00 2020

#	Modifying user name:	Administrator
#	Modification time:	Sun Jul 05 17:12:51 2020

@<TRIPOS>MOLECULE
CFE-2008-ZL-23
   48    51     1     0     0
SMALL
MULLIKEN_CHARGES
INVALID_CHARGES
Gaussian 16 #p B3LYP/6-31G* opt
@<TRIPOS>ATOM
      1 C           4.846569    1.922421   -1.942281 C.2       1 <1>        -0.331600 
      2 C           4.911500    2.398471   -0.700036 C.2       1 <1>        -0.069700 
      3 C           3.964430    2.068052    0.429692 C.3       1 <1>        -0.161800 
      4 N           3.015678    1.014331    0.130899 N.3       1 <1>        -0.638100 
      5 C           1.680026    1.169452   -0.024030 C.ar      1 <1>         0.702900 
      6 N           1.139158    2.384433    0.167993 N.ar      1 <1>        -0.571500 
      7 C          -0.190814    2.420866   -0.000283 C.ar      1 <1>         0.704000 
      8 N          -0.759373    3.652592    0.207883 N.pl3     1 <1>        -0.769100 
      9 C          -2.106247    4.042123    0.218937 C.ar      1 <1>         0.367300 
     10 C          -2.389420    5.395106   -0.039275 C.ar      1 <1>        -0.194400 
     11 C          -3.693662    5.865831   -0.008249 C.ar      1 <1>        -0.142500 
     12 C          -4.752138    4.986592    0.276269 C.ar      1 <1>         0.131800 
     13 C          -6.102273    5.461986    0.298868 C.1       1 <1>         0.230000 
     14 N          -7.199607    5.849896    0.317602 N.1       1 <1>        -0.485000 
     15 C          -4.466094    3.637272    0.545831 C.ar      1 <1>        -0.165800 
     16 C          -3.160243    3.165051    0.528804 C.ar      1 <1>        -0.138700 
     17 N          -0.971592    1.392133   -0.358263 N.ar      1 <1>        -0.535000 
     18 C          -0.299419    0.250899   -0.504138 C.ar      1 <1>         0.684800 
     19 O          -0.989029   -0.861690   -0.861586 O.3       1 <1>        -0.535700 
     20 C          -2.347062   -0.778591   -1.134801 C.ar      1 <1>         0.334200 
     21 C          -2.729666   -0.839363   -2.493011 C.ar      1 <1>        -0.152200 
     22 C          -4.059183   -0.850437   -2.834282 C.ar      1 <1>        -0.200100 
     23 C          -5.068144   -0.796870   -1.837292 C.ar      1 <1>         0.153900 
     24 C          -6.447704   -0.792374   -2.175100 C.ar      1 <1>        -0.195500 
     25 C          -7.417170   -0.731444   -1.201221 C.ar      1 <1>        -0.129100 
     26 C          -7.044017   -0.674908    0.162385 C.ar      1 <1>        -0.133200 
     27 C          -5.716641   -0.682208    0.528956 C.ar      1 <1>        -0.193500 
     28 C          -4.691155   -0.742776   -0.452583 C.ar      1 <1>         0.091100 
     29 C          -3.300205   -0.747210   -0.140210 C.ar      1 <1>        -0.010100 
     30 BR         -2.724786   -0.672708    1.673284 Br        1 <1>        -0.107200 
     31 N           0.997681    0.047406   -0.354087 N.ar      1 <1>        -0.538600 
     32 H           4.066311    1.232202   -2.252338 H         1 <1>         0.145500 
     33 H           5.570602    2.214171   -2.697345 H         1 <1>         0.146000 
     34 H           5.706979    3.092551   -0.427116 H         1 <1>         0.133000 
     35 H           4.547475    1.785979    1.319026 H         1 <1>         0.159400 
     36 H           3.383459    2.953006    0.707155 H         1 <1>         0.200300 
     37 H           3.355442    0.079034   -0.049010 H         1 <1>         0.343300 
     38 H          -0.070121    4.382153    0.336711 H         1 <1>         0.344500 
     39 H          -1.576662    6.076845   -0.277339 H         1 <1>         0.138300 
     40 H          -3.900879    6.911255   -0.212825 H         1 <1>         0.157600 
     41 H          -5.276788    2.954561    0.779826 H         1 <1>         0.162100 
     42 H          -2.956694    2.131163    0.768791 H         1 <1>         0.197900 
     43 H          -1.946652   -0.880018   -3.242948 H         1 <1>         0.152400 
     44 H          -4.354914   -0.895397   -3.878809 H         1 <1>         0.143500 
     45 H          -6.722582   -0.833939   -3.226198 H         1 <1>         0.137800 
     46 H          -8.468243   -0.724385   -1.474892 H         1 <1>         0.139300 
     47 H          -7.812501   -0.625654    0.928593 H         1 <1>         0.140500 
     48 H          -5.435197   -0.640316    1.574959 H         1 <1>         0.157000 
@<TRIPOS>BOND
     1   29   30 1    
     2   27   48 1    
     3    3   35 1    
     4   26   47 1    
     5   27   26 ar   
     6   28   27 ar   
     7   16   42 1    
     8    3   36 1    
     9   15   41 1    
    10    4    3 1    
    11    3    2 1    
    12   26   25 ar   
    13   16   15 ar   
    14    9   16 ar   
    15    4   37 1    
    16    5    4 1    
    17   15   12 ar   
    18    5    6 ar   
    19    7    6 ar   
    20   29   28 ar   
    21   20   29 ar   
    22   31    5 ar   
    23    8   38 1    
    24    8    9 1    
    25    7    8 1    
    26    9   10 ar   
    27   17    7 ar   
    28   18   31 ar   
    29   12   13 1    
    30   11   12 ar   
    31   13   14 3    
    32   28   23 ar   
    33   18   17 ar   
    34   19   18 1    
    35    2   34 1    
    36   10   11 ar   
    37   10   39 1    
    38   11   40 1    
    39   19   20 1    
    40    2    1 2    
    41   20   21 ar   
    42   25   46 1    
    43   25   24 ar   
    44   23   24 ar   
    45   23   22 ar   
    46    1   32 1    
    47    1   33 1    
    48   24   45 1    
    49   21   22 ar   
    50   21   43 1    
    51   22   44 1    
@<TRIPOS>SUBSTRUCTURE
     1 ****       38 TEMP              0 ****  ****    0 ROOT 
