#	Name:			CFE-2008-ZL-7
#	Creating user name:	Administrator
#	Creation time:		Sun Jul 05 17:10:01 2020

#	Modifying user name:	Administrator
#	Modification time:	Sun Jul 05 17:12:51 2020

@<TRIPOS>MOLECULE
CFE-2008-ZL-7
   48    51     1     0     0
SMALL
MULLIKEN_CHARGES
INVALID_CHARGES
Gaussian 16 #p B3LYP/6-31G* opt
@<TRIPOS>ATOM
      1 C          -0.674489    5.736773   -1.803272 C.2       1 <1>        -0.330700 
      2 C          -0.222718    5.923876   -0.564367 C.2       1 <1>        -0.070100 
      3 C          -0.146376    4.877525    0.522338 C.3       1 <1>        -0.161400 
      4 N          -0.788299    3.620932    0.191790 N.3       1 <1>        -0.639400 
      5 C          -0.161551    2.436490    0.002288 C.ar      1 <1>         0.705100 
      6 N           1.164583    2.361639    0.176539 N.ar      1 <1>        -0.578500 
      7 C           1.675910    1.133898   -0.028909 C.ar      1 <1>         0.724800 
      8 N           3.035654    1.066464    0.149565 N.pl3     1 <1>        -0.776400 
      9 C           3.947800    0.012131    0.041450 C.ar      1 <1>         0.379700 
     10 C           3.600638   -1.306493   -0.304984 C.ar      1 <1>        -0.160000 
     11 C           4.589008   -2.279901   -0.383630 C.ar      1 <1>        -0.154700 
     12 C           5.935144   -1.974231   -0.123198 C.ar      1 <1>         0.132200 
     13 C           6.942729   -2.987075   -0.207699 C.1       1 <1>         0.228200 
     14 N           7.764158   -3.809120   -0.275666 N.1       1 <1>        -0.484500 
     15 C           6.278544   -0.655636    0.222587 C.ar      1 <1>        -0.140600 
     16 C           5.297860    0.319325    0.302570 C.ar      1 <1>        -0.205500 
     17 N           0.991689    0.038763   -0.375774 N.ar      1 <1>        -0.543400 
     18 C          -0.320396    0.260169   -0.512749 C.ar      1 <1>         0.677200 
     19 O          -1.008650   -0.849893   -0.850169 O.3       1 <1>        -0.536600 
     20 C          -2.383064   -0.774787   -1.094062 C.ar      1 <1>         0.355200 
     21 C          -2.855436   -0.144585   -2.268597 C.ar      1 <1>        -0.135300 
     22 C          -4.200468   -0.169907   -2.549771 C.ar      1 <1>        -0.209800 
     23 C          -5.122128   -0.821730   -1.684786 C.ar      1 <1>         0.147100 
     24 C          -6.515868   -0.863465   -1.953435 C.ar      1 <1>        -0.193900 
     25 C          -7.380904   -1.507292   -1.097056 C.ar      1 <1>        -0.134600 
     26 C          -6.888483   -2.141191    0.069735 C.ar      1 <1>        -0.136100 
     27 C          -5.542337   -2.120266    0.358577 C.ar      1 <1>        -0.189200 
     28 C          -4.624220   -1.463440   -0.503747 C.ar      1 <1>         0.127400 
     29 C          -3.230292   -1.422770   -0.232183 C.ar      1 <1>        -0.234900 
     30 N          -0.966623    1.401960   -0.348194 N.ar      1 <1>        -0.543000 
     31 H          -1.033423    4.768894   -2.143347 H         1 <1>         0.143400 
     32 H          -0.692936    6.547197   -2.525938 H         1 <1>         0.147000 
     33 H           0.133820    6.908679   -0.261318 H         1 <1>         0.134200 
     34 H          -0.592935    5.280212    1.443664 H         1 <1>         0.159900 
     35 H           0.898174    4.650971    0.757244 H         1 <1>         0.200900 
     36 H          -1.785613    3.603928    0.025941 H         1 <1>         0.343400 
     37 H           3.423662    1.965443    0.406108 H         1 <1>         0.345500 
     38 H           2.567124   -1.548829   -0.506936 H         1 <1>         0.201900 
     39 H           4.315626   -3.295601   -0.651342 H         1 <1>         0.160400 
     40 H           7.314204   -0.403817    0.426489 H         1 <1>         0.157700 
     41 H           5.574768    1.336368    0.570830 H         1 <1>         0.136100 
     42 H          -2.149209    0.345918   -2.929762 H         1 <1>         0.141800 
     43 H          -4.576220    0.309949   -3.450099 H         1 <1>         0.136100 
     44 H          -6.889937   -0.376720   -2.851293 H         1 <1>         0.131300 
     45 H          -8.445237   -1.532117   -1.314013 H         1 <1>         0.132100 
     46 H          -7.579881   -2.646974    0.738365 H         1 <1>         0.133000 
     47 H          -5.163002   -2.607479    1.253600 H         1 <1>         0.133600 
     48 H          -2.830167   -1.908362    0.652833 H         1 <1>         0.143700 
@<TRIPOS>BOND
     1   27   47 1    
     2   26   46 1    
     3    3   34 1    
     4   29   48 1    
     5   27   26 ar   
     6   28   27 ar   
     7   26   25 ar   
     8    3   35 1    
     9    4    3 1    
    10    3    2 1    
    11    4   36 1    
    12    5    4 1    
    13   29   28 ar   
    14   20   29 ar   
    15    8   37 1    
    16   16   41 1    
    17    5    6 ar   
    18    7    6 ar   
    19   30    5 ar   
    20   28   23 ar   
    21    7    8 1    
    22    8    9 1    
    23    9   16 ar   
    24   16   15 ar   
    25   17    7 ar   
    26   15   40 1    
    27   18   30 ar   
    28    9   10 ar   
    29   15   12 ar   
    30    2   33 1    
    31   25   45 1    
    32   25   24 ar   
    33   18   17 ar   
    34   19   18 1    
    35   10   38 1    
    36   10   11 ar   
    37    2    1 2    
    38   11   12 ar   
    39   12   13 1    
    40   19   20 1    
    41   11   39 1    
    42   13   14 3    
    43   20   21 ar   
    44   23   24 ar   
    45   23   22 ar   
    46   24   44 1    
    47    1   31 1    
    48    1   32 1    
    49   21   22 ar   
    50   21   42 1    
    51   22   43 1    
@<TRIPOS>SUBSTRUCTURE
     1 ****       41 TEMP              0 ****  ****    0 ROOT 
