#	Name:			CFE-2008-ZL-29
#	Creating user name:	Administrator
#	Creation time:		Sun Jul 05 17:10:00 2020

#	Modifying user name:	Administrator
#	Modification time:	Sun Jul 05 17:12:51 2020

@<TRIPOS>MOLECULE
CFE-2008-ZL-29
   48    51     1     0     0
SMALL
MULLIKEN_CHARGES
INVALID_CHARGES
Gaussian 16 #p B3LYP/6-31G* opt
@<TRIPOS>ATOM
      1 C          -3.289973    5.633965    1.591624 C.2       1 <1>        -0.338500 
      2 C          -2.712182    4.443612    1.431096 C.2       1 <1>        -0.051400 
      3 C          -2.178939    3.933065    0.117808 C.3       1 <1>        -0.183200 
      4 N          -0.751465    3.639087    0.192091 N.3       1 <1>        -0.633800 
      5 C          -0.178859    2.428731    0.003708 C.ar      1 <1>         0.706100 
      6 N           1.152584    2.359708    0.179768 N.ar      1 <1>        -0.580100 
      7 C           1.671744    1.139722   -0.028132 C.ar      1 <1>         0.724500 
      8 N           3.031914    1.076943    0.147759 N.pl3     1 <1>        -0.776900 
      9 C           3.948728    0.026431    0.040200 C.ar      1 <1>         0.379800 
     10 C           3.606536   -1.296657   -0.293549 C.ar      1 <1>        -0.159900 
     11 C           4.599854   -2.265015   -0.372844 C.ar      1 <1>        -0.154700 
     12 C           5.946209   -1.949849   -0.125484 C.ar      1 <1>         0.132100 
     13 C           6.959128   -2.957108   -0.211861 C.1       1 <1>         0.228200 
     14 N           7.785256   -3.774296   -0.281934 N.1       1 <1>        -0.484700 
     15 C           6.284638   -0.626972    0.208565 C.ar      1 <1>        -0.140600 
     16 C           5.298964    0.343050    0.289233 C.ar      1 <1>        -0.205600 
     17 N           0.992003    0.037720   -0.377388 N.ar      1 <1>        -0.542500 
     18 C          -0.315647    0.254337   -0.509076 C.ar      1 <1>         0.689600 
     19 O          -1.006902   -0.856999   -0.856339 O.3       1 <1>        -0.532000 
     20 C          -2.380464   -0.773520   -1.042061 C.ar      1 <1>         0.358800 
     21 C          -2.865802   -0.449959   -2.327953 C.ar      1 <1>        -0.140800 
     22 C          -4.215793   -0.459101   -2.574137 C.ar      1 <1>        -0.207200 
     23 C          -5.140726   -0.794271   -1.550047 C.ar      1 <1>         0.154400 
     24 C          -6.540369   -0.810732   -1.790487 C.ar      1 <1>        -0.196000 
     25 C          -7.428194   -1.139926   -0.792624 C.ar      1 <1>        -0.130600 
     26 C          -6.949380   -1.469769    0.496981 C.ar      1 <1>        -0.133300 
     27 C          -5.599226   -1.465507    0.768125 C.ar      1 <1>        -0.194500 
     28 C          -4.657198   -1.129664   -0.240191 C.ar      1 <1>         0.122500 
     29 C          -3.246646   -1.107327   -0.022598 C.ar      1 <1>        -0.187500 
     30 CL         -2.589399   -1.505969    1.551273 Cl        1 <1>         0.013700 
     31 N          -0.973056    1.391174   -0.348004 N.ar      1 <1>        -0.541000 
     32 H          -3.673542    5.959937    2.554437 H         1 <1>         0.150900 
     33 H          -3.411911    6.326259    0.760464 H         1 <1>         0.142000 
     34 H          -2.597899    3.769310    2.279575 H         1 <1>         0.144800 
     35 H          -2.670730    2.999915   -0.169221 H         1 <1>         0.210400 
     36 H          -2.364259    4.668251   -0.676420 H         1 <1>         0.154000 
     37 H          -0.119031    4.370126    0.489016 H         1 <1>         0.338700 
     38 H           3.416073    1.977214    0.406084 H         1 <1>         0.346300 
     39 H           2.573017   -1.547333   -0.484936 H         1 <1>         0.202300 
     40 H           4.329897   -3.284294   -0.630283 H         1 <1>         0.160600 
     41 H           7.320286   -0.367790    0.402879 H         1 <1>         0.157600 
     42 H           5.572047    1.363385    0.548235 H         1 <1>         0.136200 
     43 H          -2.145722   -0.205390   -3.101847 H         1 <1>         0.150200 
     44 H          -4.592922   -0.212074   -3.562775 H         1 <1>         0.142200 
     45 H          -6.896999   -0.556632   -2.785724 H         1 <1>         0.136100 
     46 H          -8.496162   -1.148285   -0.991386 H         1 <1>         0.136600 
     47 H          -7.654111   -1.729764    1.281894 H         1 <1>         0.138000 
     48 H          -5.241078   -1.720283    1.759024 H         1 <1>         0.158300 
@<TRIPOS>BOND
     1   27   48 1    
     2   26   47 1    
     3   29   30 1    
     4    2   34 1    
     5    1   32 1    
     6   27   26 ar   
     7   28   27 ar   
     8   26   25 ar   
     9    2    1 2    
    10    3    2 1    
    11    1   33 1    
    12   29   28 ar   
    13   20   29 ar   
    14   28   23 ar   
    15   15   41 1    
    16   13   14 3    
    17   16   15 ar   
    18   15   12 ar   
    19   16   42 1    
    20   12   13 1    
    21    9   16 ar   
    22   11   12 ar   
    23    8   38 1    
    24    8    9 1    
    25    9   10 ar   
    26   11   40 1    
    27   10   11 ar   
    28    7    8 1    
    29   10   39 1    
    30   25   46 1    
    31   25   24 ar   
    32    7    6 ar   
    33    5    6 ar   
    34   17    7 ar   
    35    4   37 1    
    36   18   17 ar   
    37    5    4 1    
    38   31    5 ar   
    39    4    3 1    
    40    3   35 1    
    41    3   36 1    
    42   18   31 ar   
    43   19   18 1    
    44   19   20 1    
    45   20   21 ar   
    46   23   24 ar   
    47   23   22 ar   
    48   24   45 1    
    49   21   22 ar   
    50   21   43 1    
    51   22   44 1    
@<TRIPOS>SUBSTRUCTURE
     1 ****       14 TEMP              0 ****  ****    0 ROOT 
