#	Name:			CFE-2008-ZL-20
#	Creating user name:	Administrator
#	Creation time:		Sun Jul 05 17:10:00 2020

#	Modifying user name:	Administrator
#	Modification time:	Sun Jul 05 17:12:51 2020

@<TRIPOS>MOLECULE
CFE-2008-ZL-20
   50    53     1     0     0
SMALL
MULLIKEN_CHARGES
INVALID_CHARGES
Gaussian 16 #p B3LYP/6-31G* opt
@<TRIPOS>ATOM
      1 C          -2.484539    4.561473    2.574151 C.3       1 <1>        -0.451300 
      2 C          -2.943599    3.663328    1.422034 C.3       1 <1>        -0.250500 
      3 C          -2.187498    3.903658    0.106373 C.3       1 <1>        -0.131100 
      4 N          -0.754255    3.637846    0.186087 N.3       1 <1>        -0.631900 
      5 C          -0.177452    2.429937    0.006873 C.ar      1 <1>         0.702000 
      6 N           1.154989    2.360398    0.179092 N.ar      1 <1>        -0.579400 
      7 C           1.672230    1.139814   -0.028675 C.ar      1 <1>         0.722700 
      8 N           3.032108    1.074076    0.150766 N.pl3     1 <1>        -0.776500 
      9 C           3.947928    0.022995    0.040824 C.ar      1 <1>         0.379800 
     10 C           5.296057    0.333866    0.308124 C.ar      1 <1>        -0.205600 
     11 C           6.280587   -0.637246    0.227103 C.ar      1 <1>        -0.140500 
     12 C           5.943338   -1.955466   -0.125792 C.ar      1 <1>         0.132200 
     13 C           6.954713   -2.964393   -0.210878 C.1       1 <1>         0.228200 
     14 N           7.779124   -3.783482   -0.278993 N.1       1 <1>        -0.484300 
     15 C           4.599257   -2.264635   -0.392553 C.ar      1 <1>        -0.154600 
     16 C           3.607051   -1.295216   -0.313042 C.ar      1 <1>        -0.160000 
     17 N           0.991449    0.039292   -0.381322 N.ar      1 <1>        -0.542500 
     18 C          -0.317201    0.255842   -0.513875 C.ar      1 <1>         0.673800 
     19 O          -1.004750   -0.857976   -0.856214 O.3       1 <1>        -0.536500 
     20 C          -2.375517   -0.791550   -1.095952 C.ar      1 <1>         0.362900 
     21 C          -2.859058   -0.092313   -2.224855 C.ar      1 <1>        -0.139800 
     22 C          -4.203886   -0.124058   -2.501244 C.ar      1 <1>        -0.160600 
     23 CL         -4.774688    0.763145   -3.912733 Cl        1 <1>        -0.011000 
     24 C          -5.133351   -0.846800   -1.694940 C.ar      1 <1>         0.150000 
     25 C          -6.528474   -0.905516   -1.949047 C.ar      1 <1>        -0.196300 
     26 C          -7.363555   -1.629366   -1.127359 C.ar      1 <1>        -0.133600 
     27 C          -6.845108   -2.329735   -0.013045 C.ar      1 <1>        -0.131300 
     28 C          -5.496973   -2.292713    0.259426 C.ar      1 <1>        -0.191200 
     29 C          -4.603805   -1.556084   -0.563816 C.ar      1 <1>         0.129800 
     30 C          -3.212521   -1.511180   -0.284437 C.ar      1 <1>        -0.231300 
     31 N          -0.974801    1.391192   -0.338344 N.ar      1 <1>        -0.539100 
     32 H          -1.427630    4.395482    2.814124 H         1 <1>         0.145200 
     33 H          -3.061595    4.361732    3.483395 H         1 <1>         0.154000 
     34 H          -2.611388    5.623656    2.327970 H         1 <1>         0.140300 
     35 H          -4.011659    3.827130    1.225645 H         1 <1>         0.141000 
     36 H          -2.834355    2.607189    1.696210 H         1 <1>         0.159100 
     37 H          -2.303306    4.946512   -0.212082 H         1 <1>         0.145400 
     38 H          -2.598860    3.266679   -0.679733 H         1 <1>         0.186700 
     39 H          -0.124680    4.367284    0.488880 H         1 <1>         0.338700 
     40 H           3.417016    1.973022    0.412342 H         1 <1>         0.346200 
     41 H           5.568352    1.350554    0.582098 H         1 <1>         0.136500 
     42 H           7.314515   -0.382504    0.436008 H         1 <1>         0.158000 
     43 H           4.330587   -3.280056   -0.666195 H         1 <1>         0.160300 
     44 H           2.575469   -1.541053   -0.519905 H         1 <1>         0.200700 
     45 H          -2.173025    0.457521   -2.856775 H         1 <1>         0.165100 
     46 H          -6.930159   -0.371763   -2.802961 H         1 <1>         0.158200 
     47 H          -8.428967   -1.663915   -1.336801 H         1 <1>         0.137600 
     48 H          -7.514814   -2.897672    0.626707 H         1 <1>         0.137500 
     49 H          -5.091311   -2.829075    1.113499 H         1 <1>         0.138000 
     50 H          -2.807729   -2.050160    0.566290 H         1 <1>         0.148900 
@<TRIPOS>BOND
     1   28   49 1    
     2   27   48 1    
     3    1   33 1    
     4   28   27 ar   
     5   29   28 ar   
     6   27   26 ar   
     7   30   50 1    
     8    1   32 1    
     9    1   34 1    
    10    2    1 1    
    11    2   36 1    
    12   30   29 ar   
    13   20   30 ar   
    14   29   24 ar   
    15    2   35 1    
    16    3    2 1    
    17   26   47 1    
    18   25   26 ar   
    19   13   14 3    
    20   15   43 1    
    21   12   13 1    
    22   15   12 ar   
    23   16   15 ar   
    24   11   12 ar   
    25   16   44 1    
    26   19   20 1    
    27   18   19 1    
    28    9   16 ar   
    29   20   21 ar   
    30   11   42 1    
    31   10   11 ar   
    32   18   17 ar   
    33    7   17 ar   
    34   31   18 ar   
    35    9   10 ar   
    36    8    9 1    
    37   10   41 1    
    38   24   25 ar   
    39   24   22 ar   
    40    5   31 ar   
    41    7    8 1    
    42    6    7 ar   
    43   25   46 1    
    44    8   40 1    
    45    5    6 ar   
    46    4    5 1    
    47    3    4 1    
    48    3   38 1    
    49    3   37 1    
    50    4   39 1    
    51   21   22 ar   
    52   21   45 1    
    53   22   23 1    
@<TRIPOS>SUBSTRUCTURE
     1 ****       33 TEMP              0 ****  ****    0 ROOT 
