#	Name:			CFE-2008-ZL-28
#	Creating user name:	Administrator
#	Creation time:		Sun Jul 05 17:10:00 2020

#	Modifying user name:	Administrator
#	Modification time:	Sun Jul 05 17:12:51 2020

@<TRIPOS>MOLECULE
CFE-2008-ZL-28
   47    50     1     0     0
SMALL
MULLIKEN_CHARGES
INVALID_CHARGES
Gaussian 16 #p B3LYP/6-31G* opt
@<TRIPOS>ATOM
      1 C           3.826303   -0.979699    1.385661 C.3       1 <1>        -0.442400 
      2 C           3.770477   -0.225688    0.053857 C.3       1 <1>        -0.127800 
      3 N           3.027863    1.028319    0.127380 N.3       1 <1>        -0.627900 
      4 C           1.690200    1.139590   -0.020152 C.ar      1 <1>         0.705800 
      5 N           1.165951    2.373850    0.184979 N.ar      1 <1>        -0.569200 
      6 C          -0.150039    2.436928    0.007024 C.ar      1 <1>         0.725100 
      7 N          -0.833356    3.616671    0.179605 N.pl3     1 <1>        -0.779400 
      8 C          -0.420794    4.902361    0.535092 C.ar      1 <1>         0.382300 
      9 C           0.914246    5.264561    0.789351 C.ar      1 <1>        -0.154500 
     10 C           1.220538    6.575138    1.134069 C.ar      1 <1>        -0.153200 
     11 C           0.218219    7.553804    1.234888 C.ar      1 <1>         0.132100 
     12 C           0.548149    8.900045    1.590582 C.1       1 <1>         0.227800 
     13 N           0.816226    9.995375    1.879701 N.1       1 <1>        -0.483800 
     14 C          -1.115710    7.189283    0.980239 C.ar      1 <1>        -0.140400 
     15 C          -1.426752    5.884168    0.636243 C.ar      1 <1>        -0.204500 
     16 N          -0.956844    1.409416   -0.347651 N.ar      1 <1>        -0.557700 
     17 C          -0.306631    0.264552   -0.506070 C.ar      1 <1>         0.683200 
     18 O          -1.009854   -0.839716   -0.855889 O.3       1 <1>        -0.532500 
     19 C          -2.380929   -0.739858   -1.046520 C.ar      1 <1>         0.359800 
     20 C          -2.857230   -0.426813   -2.338477 C.ar      1 <1>        -0.141400 
     21 C          -4.206234   -0.418607   -2.590073 C.ar      1 <1>        -0.207200 
     22 C          -5.139925   -0.724571   -1.564874 C.ar      1 <1>         0.154000 
     23 C          -6.538955   -0.721530   -1.810003 C.ar      1 <1>        -0.196300 
     24 C          -7.435519   -1.021746   -0.810724 C.ar      1 <1>        -0.130900 
     25 C          -6.966383   -1.340728    0.485164 C.ar      1 <1>        -0.133600 
     26 C          -5.617186   -1.354919    0.760943 C.ar      1 <1>        -0.194800 
     27 C          -4.666306   -1.049090   -0.248650 C.ar      1 <1>         0.122500 
     28 C          -3.256422   -1.046432   -0.026260 C.ar      1 <1>        -0.186600 
     29 CL         -2.611567   -1.434348    1.555531 Cl        1 <1>         0.012400 
     30 N           0.995026    0.040812   -0.364839 N.ar      1 <1>        -0.533500 
     31 H           2.817628   -1.250187    1.712272 H         1 <1>         0.175200 
     32 H           4.410162   -1.900633    1.274982 H         1 <1>         0.150600 
     33 H           4.294571   -0.372194    2.168578 H         1 <1>         0.143200 
     34 H           3.292312   -0.843540   -0.709064 H         1 <1>         0.191800 
     35 H           4.780227    0.015930   -0.295923 H         1 <1>         0.148300 
     36 H           3.491374    1.859954    0.465599 H         1 <1>         0.336500 
     37 H          -1.825658    3.494489    0.019378 H         1 <1>         0.351700 
     38 H           1.688571    4.515419    0.713611 H         1 <1>         0.179400 
     39 H           2.252745    6.848828    1.328984 H         1 <1>         0.156900 
     40 H          -1.901452    7.934001    1.054484 H         1 <1>         0.159200 
     41 H          -2.461917    5.613358    0.442204 H         1 <1>         0.140300 
     42 H          -2.130487   -0.203925   -3.112678 H         1 <1>         0.149600 
     43 H          -4.575843   -0.179464   -3.583443 H         1 <1>         0.141800 
     44 H          -6.888006   -0.475859   -2.810059 H         1 <1>         0.135900 
     45 H          -8.502761   -1.015380   -1.013188 H         1 <1>         0.136400 
     46 H          -7.677932   -1.577577    1.271211 H         1 <1>         0.137800 
     47 H          -5.266657   -1.600828    1.756763 H         1 <1>         0.158100 
@<TRIPOS>BOND
     1   21   43 1    
     2   20   42 1    
     3   20   21 ar   
     4   21   22 ar   
     5   23   44 1    
     6   19   20 ar   
     7   22   23 ar   
     8   23   24 ar   
     9    2   34 1    
    10   22   27 ar   
    11    2   35 1    
    12   18   19 1    
    13   19   28 ar   
    14   17   18 1    
    15   30   17 ar   
    16   17   16 ar   
    17    4   30 ar   
    18   16    6 ar   
    19    3    4 1    
    20    4    5 ar   
    21    3    2 1    
    22    3   36 1    
    23    2    1 1    
    24    6    5 ar   
    25    6    7 1    
    26    7   37 1    
    27    7    8 1    
    28    8    9 ar   
    29    8   15 ar   
    30    9   38 1    
    31   15   41 1    
    32    9   10 ar   
    33   15   14 ar   
    34   24   45 1    
    35   24   25 ar   
    36   10   39 1    
    37   10   11 ar   
    38   14   40 1    
    39   14   11 ar   
    40   11   12 1    
    41   12   13 3    
    42   27   28 ar   
    43   27   26 ar   
    44   28   29 1    
    45    1   32 1    
    46    1   31 1    
    47    1   33 1    
    48   25   26 ar   
    49   25   46 1    
    50   26   47 1    
@<TRIPOS>SUBSTRUCTURE
     1 ****       44 TEMP              0 ****  ****    0 ROOT 
