#	Name:			CFE-2008-ZL-21
#	Creating user name:	Administrator
#	Creation time:		Sun Jul 05 17:10:00 2020

#	Modifying user name:	Administrator
#	Modification time:	Sun Jul 05 17:12:51 2020

@<TRIPOS>MOLECULE
CFE-2008-ZL-21
   44    47     1     0     0
SMALL
MULLIKEN_CHARGES
INVALID_CHARGES
Gaussian 16 #p B3LYP/6-31G* opt
@<TRIPOS>ATOM
      1 C          -2.154090    3.945698   -0.013687 C.3       1 <1>        -0.308500 
      2 N          -0.752803    3.635586    0.200789 N.3       1 <1>        -0.625000 
      3 C          -0.178442    2.429574   -0.002156 C.ar      1 <1>         0.702300 
      4 N           1.154450    2.361818    0.170256 N.ar      1 <1>        -0.579500 
      5 C           1.671752    1.140179   -0.028478 C.ar      1 <1>         0.723400 
      6 N           3.031713    1.075389    0.152836 N.pl3     1 <1>        -0.777100 
      7 C           3.947926    0.025045    0.043479 C.ar      1 <1>         0.380000 
      8 C           5.294536    0.333972    0.320605 C.ar      1 <1>        -0.205700 
      9 C           6.279462   -0.636604    0.239800 C.ar      1 <1>        -0.140600 
     10 C           5.944200   -1.952842   -0.122755 C.ar      1 <1>         0.131900 
     11 C           6.956141   -2.961160   -0.207679 C.1       1 <1>         0.227900 
     12 N           7.781245   -3.779649   -0.275580 N.1       1 <1>        -0.485100 
     13 C           4.601696   -2.260214   -0.399448 C.ar      1 <1>        -0.154800 
     14 C           3.609110   -1.291201   -0.320226 C.ar      1 <1>        -0.159900 
     15 N           0.991336    0.037523   -0.374051 N.ar      1 <1>        -0.543400 
     16 C          -0.314915    0.256174   -0.512449 C.ar      1 <1>         0.691100 
     17 O          -1.007301   -0.857156   -0.854945 O.3       1 <1>        -0.534600 
     18 C          -2.375626   -0.767052   -1.074700 C.ar      1 <1>         0.328700 
     19 C          -3.231660   -1.187103   -0.033828 C.ar      1 <1>        -0.150400 
     20 C          -4.589824   -1.214526   -0.231278 C.ar      1 <1>        -0.204900 
     21 C          -5.152899   -0.824599   -1.474647 C.ar      1 <1>         0.153900 
     22 C          -6.556292   -0.847915   -1.693020 C.ar      1 <1>        -0.197200 
     23 C          -7.093238   -0.470704   -2.901867 C.ar      1 <1>        -0.130500 
     24 C          -6.241731   -0.051508   -3.951067 C.ar      1 <1>        -0.133700 
     25 C          -4.876497   -0.016380   -3.777062 C.ar      1 <1>        -0.187600 
     26 C          -4.289690   -0.399323   -2.541456 C.ar      1 <1>         0.086400 
     27 C          -2.884807   -0.388240   -2.297775 C.ar      1 <1>        -0.001500 
     28 BR         -1.667144    0.153969   -3.658748 Br        1 <1>        -0.103500 
     29 N          -0.973473    1.391334   -0.347414 N.ar      1 <1>        -0.537900 
     30 H          -2.529563    4.562937    0.809167 H         1 <1>         0.160000 
     31 H          -2.311155    4.482535   -0.958326 H         1 <1>         0.164400 
     32 H          -2.714143    3.011574   -0.047118 H         1 <1>         0.211200 
     33 H          -0.103836    4.381387    0.409110 H         1 <1>         0.338600 
     34 H           3.416114    1.975052    0.412661 H         1 <1>         0.345600 
     35 H           5.565257    1.349003    0.602322 H         1 <1>         0.135700 
     36 H           7.312210   -0.383235    0.456249 H         1 <1>         0.157200 
     37 H           4.334500   -3.273807   -0.680954 H         1 <1>         0.160200 
     38 H           2.578712   -1.535496   -0.534851 H         1 <1>         0.202100 
     39 H          -2.784590   -1.488492    0.907720 H         1 <1>         0.151800 
     40 H          -5.252133   -1.538790    0.566792 H         1 <1>         0.142200 
     41 H          -7.200432   -1.172808   -0.879472 H         1 <1>         0.136000 
     42 H          -8.168618   -0.493975   -3.054128 H         1 <1>         0.136300 
     43 H          -6.669373    0.245416   -4.904673 H         1 <1>         0.137600 
     44 H          -4.228877    0.305450   -4.584523 H         1 <1>         0.156800 
@<TRIPOS>BOND
     1   20   40 1    
     2   19   39 1    
     3   22   41 1    
     4   19   20 ar   
     5   20   21 ar   
     6   18   19 ar   
     7   21   22 ar   
     8   22   23 ar   
     9   26   21 ar   
    10   17   18 1    
    11   18   27 ar   
    12   16   17 1    
    13   13   37 1    
    14   23   42 1    
    15   16   15 ar   
    16   29   16 ar   
    17   14   38 1    
    18    1   30 1    
    19   23   24 ar   
    20    1   32 1    
    21    5   15 ar   
    22   14   13 ar   
    23   13   10 ar   
    24    3   29 ar   
    25    7   14 ar   
    26   11   12 3    
    27   10   11 1    
    28   10    9 ar   
    29    5    6 1    
    30    4    5 ar   
    31    3    4 ar   
    32    2    3 1    
    33   27   26 ar   
    34   26   25 ar   
    35    6    7 1    
    36    7    8 ar   
    37    1    2 1    
    38    1   31 1    
    39    6   34 1    
    40    2   33 1    
    41   27   28 1    
    42    9    8 ar   
    43    9   36 1    
    44    8   35 1    
    45   24   25 ar   
    46   24   43 1    
    47   25   44 1    
@<TRIPOS>SUBSTRUCTURE
     1 ****       30 TEMP              0 ****  ****    0 ROOT 
