#	Name:			CFE-2008-ZL-27
#	Creating user name:	Administrator
#	Creation time:		Sun Jul 05 17:10:00 2020

#	Modifying user name:	Administrator
#	Modification time:	Sun Jul 05 17:12:51 2020

@<TRIPOS>MOLECULE
CFE-2008-ZL-27
   41    44     1     0     0
SMALL
MULLIKEN_CHARGES
INVALID_CHARGES
Gaussian 16 #p B3LYP/6-31G* opt
@<TRIPOS>ATOM
      1 N           0.951190    9.974798    1.850265 N.1       1 <1>        -0.479700 
      2 C           0.667076    8.882847    1.564950 C.1       1 <1>         0.231000 
      3 C           0.314276    7.540392    1.214367 C.ar      1 <1>         0.134600 
      4 C           1.296932    6.540268    1.137015 C.ar      1 <1>        -0.153500 
      5 C           0.968026    5.232961    0.798349 C.ar      1 <1>        -0.158800 
      6 C          -0.371058    4.902138    0.527832 C.ar      1 <1>         0.377100 
      7 N          -0.813636    3.617998    0.179558 N.pl3     1 <1>        -0.774900 
      8 C          -0.153990    2.434432    0.006921 C.ar      1 <1>         0.729200 
      9 N           1.171426    2.361516    0.175743 N.ar      1 <1>        -0.532300 
     10 C           1.668949    1.139070   -0.029270 C.ar      1 <1>         0.669500 
     11 N           3.053769    1.055281    0.149054 N.2       1 <1>        -0.447000 
     12 N           3.552900   -0.075952   -0.039957 N.2       1 <1>         0.475200 
     13 N           4.155196   -1.025109   -0.172410 N.2       1 <1>        -0.200900 
     14 N           0.991565    0.040557   -0.373398 N.ar      1 <1>        -0.513300 
     15 C          -0.319952    0.258871   -0.510770 C.ar      1 <1>         0.689200 
     16 O          -1.015383   -0.841661   -0.858231 O.3       1 <1>        -0.524800 
     17 C          -2.393627   -0.753107   -1.033129 C.ar      1 <1>         0.351600 
     18 C          -3.222311   -1.056748    0.067878 C.ar      1 <1>        -0.143800 
     19 C          -4.585867   -1.076801   -0.087924 C.ar      1 <1>        -0.206500 
     20 C          -5.179262   -0.797553   -1.347241 C.ar      1 <1>         0.154600 
     21 C          -6.588597   -0.815774   -1.523358 C.ar      1 <1>        -0.195800 
     22 C          -7.153952   -0.547143   -2.748263 C.ar      1 <1>        -0.130100 
     23 C          -6.327566   -0.247539   -3.856643 C.ar      1 <1>        -0.133000 
     24 C          -4.956990   -0.220948   -3.725451 C.ar      1 <1>        -0.194500 
     25 C          -4.342670   -0.493247   -2.474162 C.ar      1 <1>         0.121900 
     26 C          -2.929597   -0.481840   -2.273877 C.ar      1 <1>        -0.183200 
     27 CL         -1.850580   -0.122381   -3.604901 Cl        1 <1>         0.018000 
     28 N          -0.960430    1.404359   -0.335219 N.ar      1 <1>        -0.538000 
     29 C          -1.357507    5.903557    0.604367 C.ar      1 <1>        -0.204100 
     30 C          -1.023268    7.205001    0.942434 C.ar      1 <1>        -0.139800 
     31 H           2.331825    6.792200    1.345212 H         1 <1>         0.164400 
     32 H           1.730865    4.470087    0.740455 H         1 <1>         0.202400 
     33 H          -1.807544    3.521717    0.010204 H         1 <1>         0.355200 
     34 H          -2.752256   -1.277866    1.020489 H         1 <1>         0.152500 
     35 H          -5.228764   -1.311668    0.755951 H         1 <1>         0.145200 
     36 H          -7.214039   -1.048570   -0.665065 H         1 <1>         0.138400 
     37 H          -8.233466   -0.565023   -2.868036 H         1 <1>         0.139300 
     38 H          -6.778819   -0.036742   -4.822102 H         1 <1>         0.140700 
     39 H          -4.331556    0.008914   -4.580396 H         1 <1>         0.160100 
     40 H          -2.395137    5.654099    0.395417 H         1 <1>         0.141900 
     41 H          -1.793064    7.967672    0.997862 H         1 <1>         0.161900 
@<TRIPOS>BOND
     1   19   35 1    
     2   18   34 1    
     3   21   36 1    
     4   18   19 ar   
     5   19   20 ar   
     6   17   18 ar   
     7   20   21 ar   
     8   21   22 ar   
     9   20   25 ar   
    10   16   17 1    
    11   17   26 ar   
    12   15   16 1    
    13   28   15 ar   
    14    8   28 ar   
    15   15   14 ar   
    16    7   33 1    
    17   29   40 1    
    18   22   37 1    
    19    7    8 1    
    20    6    7 1    
    21    8    9 ar   
    22   14   10 ar   
    23   29    6 ar   
    24   29   30 ar   
    25    6    5 ar   
    26   30   41 1    
    27   10    9 ar   
    28   10   11 1    
    29   22   23 ar   
    30   30    3 ar   
    31    5   32 1    
    32    5    4 ar   
    33   11   12 2    
    34   12   13 2    
    35    3    4 ar   
    36    3    2 1    
    37    4   31 1    
    38    2    1 3    
    39   25   26 ar   
    40   25   24 ar   
    41   26   27 1    
    42   23   24 ar   
    43   23   38 1    
    44   24   39 1    
@<TRIPOS>SUBSTRUCTURE
     1 ****       40 TEMP              0 ****  ****    0 ROOT 
