#	Name:			CFE-2008-ZL-8
#	Creating user name:	Administrator
#	Creation time:		Sun Jul 05 17:10:01 2020

#	Modifying user name:	Administrator
#	Modification time:	Sun Jul 05 17:12:51 2020

@<TRIPOS>MOLECULE
CFE-2008-ZL-8
   44    47     1     0     0
SMALL
MULLIKEN_CHARGES
INVALID_CHARGES
Gaussian 16 #p B3LYP/6-31G* opt
@<TRIPOS>ATOM
      1 C           3.903224    2.104093    0.517443 C.3       1 <1>        -0.286100 
      2 N           3.012258    1.027856    0.126371 N.3       1 <1>        -0.624100 
      3 C           1.678056    1.164855   -0.020335 C.ar      1 <1>         0.693200 
      4 N           1.141104    2.382258    0.170718 N.ar      1 <1>        -0.570200 
      5 C          -0.189321    2.420398   -0.000345 C.ar      1 <1>         0.701400 
      6 N          -0.753473    3.653848    0.207354 N.pl3     1 <1>        -0.769100 
      7 C          -2.097305    4.052620    0.224377 C.ar      1 <1>         0.367800 
      8 C          -2.369366    5.410735   -0.018995 C.ar      1 <1>        -0.194700 
      9 C          -3.668956    5.893030    0.021976 C.ar      1 <1>        -0.142300 
     10 C          -4.734325    5.020824    0.301946 C.ar      1 <1>         0.132600 
     11 C          -6.079234    5.509805    0.338374 C.1       1 <1>         0.230100 
     12 N          -7.171710    5.910462    0.369293 N.1       1 <1>        -0.482900 
     13 C          -4.459594    3.665999    0.554999 C.ar      1 <1>        -0.165100 
     14 C          -3.158270    3.181518    0.527079 C.ar      1 <1>        -0.139800 
     15 N          -0.971135    1.392067   -0.359085 N.ar      1 <1>        -0.536300 
     16 C          -0.299310    0.249840   -0.504525 C.ar      1 <1>         0.683400 
     17 O          -0.991036   -0.862694   -0.864884 O.3       1 <1>        -0.536100 
     18 C          -2.344246   -0.780957   -1.151533 C.ar      1 <1>         0.336600 
     19 C          -2.713407   -0.846107   -2.513673 C.ar      1 <1>        -0.152300 
     20 C          -4.038047   -0.870635   -2.871694 C.ar      1 <1>        -0.196800 
     21 C          -5.056882   -0.827952   -1.883935 C.ar      1 <1>         0.154600 
     22 C          -6.430665   -0.846323   -2.242899 C.ar      1 <1>        -0.224600 
     23 C          -7.398348   -0.800332   -1.270056 C.ar      1 <1>         0.084700 
     24 BR         -9.244463   -0.825381   -1.757538 Br        1 <1>        -0.117600 
     25 C          -7.057218   -0.733451    0.099419 C.ar      1 <1>        -0.150100 
     26 C          -5.732917   -0.717883    0.471965 C.ar      1 <1>        -0.193300 
     27 C          -4.694729   -0.765825   -0.496644 C.ar      1 <1>         0.098000 
     28 C          -3.308599   -0.754148   -0.167102 C.ar      1 <1>        -0.009400 
     29 BR         -2.756533   -0.672422    1.651395 Br        1 <1>        -0.100900 
     30 N           0.995174    0.041993   -0.350882 N.ar      1 <1>        -0.535600 
     31 H           4.926117    1.721587    0.514098 H         1 <1>         0.158000 
     32 H           3.835362    2.942458   -0.183097 H         1 <1>         0.176300 
     33 H           3.666374    2.478742    1.519947 H         1 <1>         0.173100 
     34 H           3.364829    0.089941    0.005747 H         1 <1>         0.346500 
     35 H          -0.059743    4.377966    0.343003 H         1 <1>         0.345400 
     36 H          -1.551055    6.087691   -0.252043 H         1 <1>         0.138700 
     37 H          -3.867311    6.942474   -0.170338 H         1 <1>         0.158500 
     38 H          -5.276191    2.989445    0.785988 H         1 <1>         0.160500 
     39 H          -2.962891    2.143273    0.755386 H         1 <1>         0.196100 
     40 H          -1.922047   -0.881469   -3.255197 H         1 <1>         0.156500 
     41 H          -4.322125   -0.920466   -3.918879 H         1 <1>         0.148600 
     42 H          -6.704457   -0.894811   -3.291783 H         1 <1>         0.158900 
     43 H          -7.841581   -0.695616    0.847174 H         1 <1>         0.162000 
     44 H          -5.468006   -0.668307    1.521906 H         1 <1>         0.165700 
@<TRIPOS>BOND
     1   26   44 1    
     2   28   29 1    
     3   25   43 1    
     4   26   25 ar   
     5   27   26 ar   
     6   25   23 ar   
     7   13   38 1    
     8   14   39 1    
     9    1   33 1    
    10   14   13 ar   
    11   13   10 ar   
    12    7   14 ar   
    13   28   27 ar   
    14   18   28 ar   
    15   11   12 3    
    16   27   21 ar   
    17   10   11 1    
    18    9   10 ar   
    19   23   24 1    
    20   23   22 ar   
    21    6    7 1    
    22    7    8 ar   
    23    6   35 1    
    24    5    6 1    
    25    1   31 1    
    26    2    1 1    
    27    1   32 1    
    28    5    4 ar   
    29    3    4 ar   
    30   15    5 ar   
    31    3    2 1    
    32   30    3 ar   
    33    2   34 1    
    34   16   15 ar   
    35    8    9 ar   
    36    9   37 1    
    37   16   30 ar   
    38   17   16 1    
    39   17   18 1    
    40    8   36 1    
    41   18   19 ar   
    42   21   22 ar   
    43   21   20 ar   
    44   22   42 1    
    45   19   20 ar   
    46   19   40 1    
    47   20   41 1    
@<TRIPOS>SUBSTRUCTURE
     1 ****       12 TEMP              0 ****  ****    0 ROOT 
