#	Name:			CFE-2008-ZL-11
#	Creating user name:	Administrator
#	Creation time:		Sun Jul 05 17:09:59 2020

#	Modifying user name:	Administrator
#	Modification time:	Sun Jul 05 17:12:51 2020

@<TRIPOS>MOLECULE
CFE-2008-ZL-11
   47    50     1     0     0
SMALL
MULLIKEN_CHARGES
INVALID_CHARGES
Gaussian 16 #p B3LYP/6-31G* opt
@<TRIPOS>ATOM
      1 C          -2.876406    3.401101    1.536834 C.3       1 <1>        -0.456600 
      2 C          -2.208603    3.842985    0.230199 C.3       1 <1>        -0.124600 
      3 N          -0.763769    3.628872    0.207178 N.3       1 <1>        -0.627200 
      4 C          -0.175344    2.430650    0.000584 C.ar      1 <1>         0.700500 
      5 N           1.155761    2.359641    0.181310 N.ar      1 <1>        -0.578700 
      6 C           1.673443    1.139592   -0.027825 C.ar      1 <1>         0.723200 
      7 N           3.034681    1.075740    0.139800 N.pl3     1 <1>        -0.777100 
      8 C           3.950225    0.024435    0.029419 C.ar      1 <1>         0.379800 
      9 C           5.302629    0.341697    0.265220 C.ar      1 <1>        -0.205500 
     10 C           6.287195   -0.629122    0.180957 C.ar      1 <1>        -0.140500 
     11 C           5.945583   -1.953525   -0.143412 C.ar      1 <1>         0.132200 
     12 C           6.957193   -2.961846   -0.232994 C.1       1 <1>         0.228200 
     13 N           7.781886   -3.780286   -0.305681 N.1       1 <1>        -0.484300 
     14 C           4.597056   -2.269348   -0.377801 C.ar      1 <1>        -0.154600 
     15 C           3.604796   -1.300281   -0.294804 C.ar      1 <1>        -0.159800 
     16 N           0.989204    0.034446   -0.362343 N.ar      1 <1>        -0.543400 
     17 C          -0.313800    0.258609   -0.511104 C.ar      1 <1>         0.684700 
     18 O          -1.011742   -0.856672   -0.846372 O.3       1 <1>        -0.535600 
     19 C          -2.388233   -0.785088   -0.997118 C.ar      1 <1>         0.329600 
     20 C          -2.891018   -0.877059   -2.313585 C.ar      1 <1>        -0.154100 
     21 C          -4.245058   -0.910749   -2.536233 C.ar      1 <1>        -0.199500 
     22 C          -5.159144   -0.850456   -1.451914 C.ar      1 <1>         0.153900 
     23 C          -6.562079   -0.878506   -1.670664 C.ar      1 <1>        -0.225500 
     24 C          -7.426701   -0.818763   -0.606051 C.ar      1 <1>         0.083600 
     25 BR         -9.313287   -0.854510   -0.905120 Br        1 <1>        -0.121400 
     26 C          -6.950237   -0.729328    0.720924 C.ar      1 <1>        -0.150700 
     27 C          -5.595616   -0.701633    0.957730 C.ar      1 <1>        -0.189000 
     28 C          -4.659632   -0.761792   -0.109100 C.ar      1 <1>         0.094500 
     29 C          -3.247767   -0.738484    0.080313 C.ar      1 <1>         0.004400 
     30 BR         -2.517482   -0.638080    1.834369 Br        1 <1>        -0.092900 
     31 N          -0.966117    1.399545   -0.376841 N.ar      1 <1>        -0.532300 
     32 H          -3.947964    3.631270    1.506581 H         1 <1>         0.148100 
     33 H          -2.442055    3.920421    2.398976 H         1 <1>         0.142000 
     34 H          -2.762470    2.322983    1.684386 H         1 <1>         0.187900 
     35 H          -2.638843    3.298789   -0.613791 H         1 <1>         0.184000 
     36 H          -2.373396    4.911105    0.053476 H         1 <1>         0.147900 
     37 H          -0.151459    4.342404    0.577889 H         1 <1>         0.336700 
     38 H           3.421473    1.976914    0.390883 H         1 <1>         0.346400 
     39 H           5.578385    1.363251    0.516497 H         1 <1>         0.136500 
     40 H           7.324665   -0.369236    0.365148 H         1 <1>         0.158000 
     41 H           4.324778   -3.289814   -0.627885 H         1 <1>         0.160300 
     42 H           2.569684   -1.551605   -0.475896 H         1 <1>         0.200800 
     43 H          -2.177581   -0.925568   -3.129544 H         1 <1>         0.157800 
     44 H          -4.632462   -0.982670   -3.548408 H         1 <1>         0.148600 
     45 H          -6.939679   -0.946943   -2.685668 H         1 <1>         0.158300 
     46 H          -7.655482   -0.683088    1.543294 H         1 <1>         0.159900 
     47 H          -5.226682   -0.632359    1.974526 H         1 <1>         0.165300 
@<TRIPOS>BOND
     1   21   44 1    
     2   20   43 1    
     3   23   45 1    
     4   20   21 ar   
     5   21   22 ar   
     6   19   20 ar   
     7    2   35 1    
     8    2   36 1    
     9   22   23 ar   
    10   23   24 ar   
    11   22   28 ar   
    12    3    2 1    
    13    4    3 1    
    14    3   37 1    
    15    2    1 1    
    16    4   31 ar   
    17   17   31 ar   
    18   18   19 1    
    19   19   29 ar   
    20    5    4 ar   
    21   17   18 1    
    22   16   17 ar   
    23    6    5 ar   
    24    6   16 ar   
    25    7    6 1    
    26    7   38 1    
    27    8    7 1    
    28   24   25 1    
    29   15   42 1    
    30    8   15 ar   
    31    8    9 ar   
    32    9   39 1    
    33   15   14 ar   
    34    9   10 ar   
    35   24   26 ar   
    36   14   41 1    
    37   14   11 ar   
    38   10   11 ar   
    39   10   40 1    
    40   11   12 1    
    41   12   13 3    
    42   28   29 ar   
    43   28   27 ar   
    44   29   30 1    
    45    1   32 1    
    46    1   34 1    
    47    1   33 1    
    48   26   27 ar   
    49   26   46 1    
    50   27   47 1    
@<TRIPOS>SUBSTRUCTURE
     1 ****       35 TEMP              0 ****  ****    0 ROOT 
