#	Name:			CFE-2008-ZL-24
#	Creating user name:	Administrator
#	Creation time:		Sun Jul 05 17:10:00 2020

#	Modifying user name:	Administrator
#	Modification time:	Sun Jul 05 17:12:51 2020

@<TRIPOS>MOLECULE
CFE-2008-ZL-24
   50    53     1     0     0
SMALL
MULLIKEN_CHARGES
INVALID_CHARGES
Gaussian 16 #p B3LYP/6-31G* opt
@<TRIPOS>ATOM
      1 C          -2.245599    4.086216   -2.481203 C.3       1 <1>        -0.443500 
      2 C          -2.529077    4.785313   -1.148831 C.3       1 <1>        -0.252100 
      3 C          -2.174775    3.940554    0.084762 C.3       1 <1>        -0.136400 
      4 N          -0.753289    3.636999    0.196305 N.3       1 <1>        -0.634300 
      5 C          -0.179052    2.429805    0.000654 C.ar      1 <1>         0.708300 
      6 N           1.153976    2.360902    0.173869 N.ar      1 <1>        -0.581900 
      7 C           1.671745    1.139691   -0.027872 C.ar      1 <1>         0.723700 
      8 N           3.032692    1.076844    0.147132 N.pl3     1 <1>        -0.777200 
      9 C           3.948487    0.025592    0.044261 C.ar      1 <1>         0.380000 
     10 C           5.299255    0.342052    0.291051 C.ar      1 <1>        -0.205700 
     11 C           6.284042   -0.629202    0.214935 C.ar      1 <1>        -0.140600 
     12 C           5.944460   -1.953506   -0.112372 C.ar      1 <1>         0.131900 
     13 C           6.956509   -2.962019   -0.193772 C.1       1 <1>         0.227900 
     14 N           7.781707   -3.780531   -0.259860 N.1       1 <1>        -0.485100 
     15 C           4.597729   -2.268561   -0.357726 C.ar      1 <1>        -0.154800 
     16 C           3.605236   -1.299069   -0.282938 C.ar      1 <1>        -0.159900 
     17 N           0.991461    0.035791   -0.370387 N.ar      1 <1>        -0.544100 
     18 C          -0.315299    0.254394   -0.505231 C.ar      1 <1>         0.689600 
     19 O          -1.007582   -0.854935   -0.861694 O.3       1 <1>        -0.535000 
     20 C          -2.384271   -0.769660   -1.023593 C.ar      1 <1>         0.329400 
     21 C          -2.879911   -0.631588   -2.338431 C.ar      1 <1>        -0.149500 
     22 C          -4.233716   -0.638283   -2.565567 C.ar      1 <1>        -0.205900 
     23 C          -5.151534   -0.784371   -1.492380 C.ar      1 <1>         0.154200 
     24 C          -6.554756   -0.793935   -1.712763 C.ar      1 <1>        -0.197300 
     25 C          -7.436745   -0.938413   -0.667247 C.ar      1 <1>        -0.130500 
     26 C          -6.947824   -1.080815    0.652632 C.ar      1 <1>        -0.133700 
     27 C          -5.594373   -1.077130    0.905198 C.ar      1 <1>        -0.187600 
     28 C          -4.656797   -0.930101   -0.151592 C.ar      1 <1>         0.086000 
     29 C          -3.243983   -0.919817    0.042494 C.ar      1 <1>        -0.002700 
     30 BR         -2.500905   -1.107662    1.786325 Br        1 <1>        -0.102800 
     31 N          -0.972335    1.390932   -0.348388 N.ar      1 <1>        -0.537300 
     32 H          -2.793328    3.139838   -2.555147 H         1 <1>         0.156500 
     33 H          -1.179311    3.860921   -2.591560 H         1 <1>         0.151200 
     34 H          -2.542104    4.718678   -3.325240 H         1 <1>         0.144500 
     35 H          -3.595566    5.038666   -1.078162 H         1 <1>         0.141100 
     36 H          -1.985050    5.739636   -1.103500 H         1 <1>         0.130800 
     37 H          -2.484919    4.467025    0.996550 H         1 <1>         0.148000 
     38 H          -2.702273    2.984992    0.057490 H         1 <1>         0.197600 
     39 H          -0.107850    4.375120    0.442971 H         1 <1>         0.335100 
     40 H           3.417368    1.977972    0.401621 H         1 <1>         0.345600 
     41 H           5.573395    1.363484    0.544983 H         1 <1>         0.135700 
     42 H           7.320053   -0.369827    0.407609 H         1 <1>         0.157200 
     43 H           4.326881   -3.288881   -0.610078 H         1 <1>         0.160100 
     44 H           2.571462   -1.549423   -0.472827 H         1 <1>         0.202000 
     45 H          -2.164777   -0.529644   -3.148063 H         1 <1>         0.152100 
     46 H          -4.619367   -0.534520   -3.576236 H         1 <1>         0.142300 
     47 H          -6.918634   -0.684616   -2.731506 H         1 <1>         0.136000 
     48 H          -8.507373   -0.944053   -0.851232 H         1 <1>         0.136400 
     49 H          -7.647424   -1.194980    1.475979 H         1 <1>         0.137800 
     50 H          -5.225307   -1.186796    1.918597 H         1 <1>         0.157100 
@<TRIPOS>BOND
     1    3   37 1    
     2   27   50 1    
     3   29   30 1    
     4   26   49 1    
     5    4   39 1    
     6    4    3 1    
     7    5    4 1    
     8    3   38 1    
     9    3    2 1    
    10   27   26 ar   
    11   28   27 ar   
    12    8   40 1    
    13   10   41 1    
    14    5    6 ar   
    15    7    6 ar   
    16   26   25 ar   
    17   31    5 ar   
    18    7    8 1    
    19    8    9 1    
    20   10   11 ar   
    21    9   10 ar   
    22   11   42 1    
    23   17    7 ar   
    24   11   12 ar   
    25    9   16 ar   
    26    2   36 1    
    27   29   28 ar   
    28   20   29 ar   
    29   18   31 ar   
    30    2   35 1    
    31   28   23 ar   
    32    2    1 1    
    33   18   17 ar   
    34   19   18 1    
    35   12   13 1    
    36   15   12 ar   
    37   16   44 1    
    38   16   15 ar   
    39   25   48 1    
    40   25   24 ar   
    41   13   14 3    
    42   15   43 1    
    43   19   20 1    
    44   20   21 ar   
    45   23   24 ar   
    46   23   22 ar   
    47    1   33 1    
    48    1   32 1    
    49    1   34 1    
    50   24   47 1    
    51   21   22 ar   
    52   21   45 1    
    53   22   46 1    
@<TRIPOS>SUBSTRUCTURE
     1 ****       41 TEMP              0 ****  ****    0 ROOT 
