#	Name:			CFE-2008-ZL-32
#	Creating user name:	Administrator
#	Creation time:		Sun Jul 05 17:10:01 2020

#	Modifying user name:	Administrator
#	Modification time:	Sun Jul 05 17:12:51 2020

@<TRIPOS>MOLECULE
CFE-2008-ZL-32
   41    44     1     0     0
SMALL
MULLIKEN_CHARGES
INVALID_CHARGES
Gaussian 16 #p B3LYP/6-31G* opt
@<TRIPOS>ATOM
      1 N           8.416614    4.799857    1.736388 N.1       1 <1>        -0.482700 
      2 C           7.486017    4.156537    1.462388 C.1       1 <1>         0.228400 
      3 C           6.341836    3.365737    1.125275 C.ar      1 <1>         0.132500 
      4 C           5.061359    3.941583    1.088560 C.ar      1 <1>        -0.152900 
      5 C           3.941972    3.185864    0.762655 C.ar      1 <1>        -0.154200 
      6 C           4.084498    1.819356    0.462394 C.ar      1 <1>         0.381400 
      7 N           3.026676    0.971482    0.124306 N.pl3     1 <1>        -0.776600 
      8 C           1.677149    1.179238   -0.018351 C.ar      1 <1>         0.717600 
      9 N           1.150420    2.392390    0.173252 N.ar      1 <1>        -0.549400 
     10 C          -0.184109    2.436510   -0.003454 C.ar      1 <1>         0.670700 
     11 N          -0.795712    3.625468    0.194675 N.3       1 <1>        -0.770300 
     12 N          -0.970973    1.398492   -0.346711 N.ar      1 <1>        -0.527200 
     13 C          -0.303613    0.258724   -0.501763 C.ar      1 <1>         0.672900 
     14 O          -0.979983   -0.853944   -0.860029 O.3       1 <1>        -0.535100 
     15 C          -2.370344   -0.827505   -0.973240 C.ar      1 <1>         0.356900 
     16 C          -3.174490   -0.669145    0.179847 C.ar      1 <1>        -0.132900 
     17 C          -4.541341   -0.752600    0.065813 C.ar      1 <1>        -0.206400 
     18 C          -5.159027   -1.000937   -1.190894 C.ar      1 <1>         0.145600 
     19 C          -6.569338   -1.090875   -1.329351 C.ar      1 <1>        -0.221000 
     20 C          -7.121016   -1.336067   -2.563611 C.ar      1 <1>         0.078800 
     21 BR         -9.021346   -1.455131   -2.749724 Br        1 <1>        -0.129200 
     22 C          -6.317537   -1.505357   -3.714631 C.ar      1 <1>        -0.152700 
     23 C          -4.948764   -1.423138   -3.599702 C.ar      1 <1>        -0.190500 
     24 C          -4.329869   -1.169395   -2.346639 C.ar      1 <1>         0.135800 
     25 C          -2.920216   -1.076587   -2.205253 C.ar      1 <1>        -0.237000 
     26 N           1.002461    0.062061   -0.357535 N.ar      1 <1>        -0.547900 
     27 C           5.369024    1.241342    0.499739 C.ar      1 <1>        -0.204300 
     28 C           6.481692    1.999399    0.825431 C.ar      1 <1>        -0.140100 
     29 H           4.945259    4.995749    1.319681 H         1 <1>         0.157500 
     30 H           2.959674    3.634070    0.736327 H         1 <1>         0.179200 
     31 H           3.270191    0.005475   -0.058138 H         1 <1>         0.352800 
     32 H          -1.769626    3.714657   -0.051017 H         1 <1>         0.355900 
     33 H          -0.233442    4.451804    0.324914 H         1 <1>         0.351500 
     34 H          -2.700630   -0.485130    1.137688 H         1 <1>         0.147800 
     35 H          -5.168950   -0.632877    0.944940 H         1 <1>         0.142200 
     36 H          -7.203055   -0.965195   -0.457346 H         1 <1>         0.154100 
     37 H          -6.786696   -1.698308   -4.673071 H         1 <1>         0.156000 
     38 H          -4.323726   -1.552766   -4.479502 H         1 <1>         0.143800 
     39 H          -2.272752   -1.207620   -3.066885 H         1 <1>         0.147200 
     40 H           5.489029    0.185393    0.269290 H         1 <1>         0.141500 
     41 H           7.464427    1.539889    0.849734 H         1 <1>         0.160400 
@<TRIPOS>BOND
     1   17   35 1    
     2   16   34 1    
     3   16   17 ar   
     4   17   18 ar   
     5   15   16 ar   
     6   19   36 1    
     7   18   19 ar   
     8   19   20 ar   
     9   18   24 ar   
    10   14   15 1    
    11   15   25 ar   
    12   13   14 1    
    13    7   31 1    
    14   27   40 1    
    15   26   13 ar   
    16    8   26 ar   
    17   13   12 ar   
    18    7    8 1    
    19    6    7 1    
    20   27   28 ar   
    21   27    6 ar   
    22   28   41 1    
    23    8    9 ar   
    24   28    3 ar   
    25    6    5 ar   
    26   12   10 ar   
    27    9   10 ar   
    28   10   11 1    
    29   20   21 1    
    30    3    4 ar   
    31    3    2 1    
    32    5   30 1    
    33    5    4 ar   
    34   20   22 ar   
    35    4   29 1    
    36    2    1 3    
    37   11   32 1    
    38   11   33 1    
    39   24   25 ar   
    40   24   23 ar   
    41   25   39 1    
    42   22   23 ar   
    43   22   37 1    
    44   23   38 1    
@<TRIPOS>SUBSTRUCTURE
     1 ****       40 TEMP              0 ****  ****    0 ROOT 
