#	Name:			CFE-2008-ZL-5
#	Creating user name:	Administrator
#	Creation time:		Sun Jul 05 17:10:01 2020

#	Modifying user name:	Administrator
#	Modification time:	Sun Jul 05 17:12:51 2020

@<TRIPOS>MOLECULE
CFE-2008-ZL-5
   41    44     1     0     0
SMALL
MULLIKEN_CHARGES
INVALID_CHARGES
Gaussian 16 #p B3LYP/6-31G* opt
@<TRIPOS>ATOM
      1 N           0.820738   10.006214    1.838507 N.1       1 <1>        -0.483300 
      2 C           0.552057    8.909537    1.555408 C.1       1 <1>         0.228200 
      3 C           0.221251    7.561477    1.207181 C.ar      1 <1>         0.132300 
      4 C           1.217948    6.573668    1.147531 C.ar      1 <1>        -0.153000 
      5 C           0.910901    5.261241    0.810868 C.ar      1 <1>        -0.154500 
      6 C          -0.419334    4.906644    0.522943 C.ar      1 <1>         0.381600 
      7 N          -0.833912    3.618279    0.177436 N.pl3     1 <1>        -0.778400 
      8 C          -0.152419    2.437746    0.008650 C.ar      1 <1>         0.719400 
      9 N           1.168445    2.380215    0.174843 N.ar      1 <1>        -0.551500 
     10 C           1.686494    1.148962   -0.030361 C.ar      1 <1>         0.670600 
     11 N           3.020004    1.010808    0.140430 N.3       1 <1>        -0.771200 
     12 N           0.999697    0.046646   -0.373096 N.ar      1 <1>        -0.519200 
     13 C          -0.307504    0.260471   -0.502344 C.ar      1 <1>         0.672000 
     14 O          -1.001456   -0.839953   -0.858998 O.3       1 <1>        -0.535000 
     15 C          -2.394271   -0.788401   -0.961416 C.ar      1 <1>         0.354400 
     16 C          -3.182125   -0.689505    0.208947 C.ar      1 <1>        -0.136800 
     17 C          -4.551334   -0.745538    0.103804 C.ar      1 <1>        -0.210300 
     18 C          -5.187607   -0.906250   -1.157777 C.ar      1 <1>         0.146700 
     19 C          -6.599958   -0.968474   -1.293087 C.ar      1 <1>        -0.194100 
     20 C          -7.184103   -1.128985   -2.529658 C.ar      1 <1>        -0.134600 
     21 C          -6.379031   -1.235896   -3.689902 C.ar      1 <1>        -0.136000 
     22 C          -5.006448   -1.180821   -3.592977 C.ar      1 <1>        -0.189300 
     23 C          -4.373165   -1.014563   -2.332296 C.ar      1 <1>         0.127400 
     24 C          -2.959931   -0.951811   -2.199925 C.ar      1 <1>        -0.235400 
     25 N          -0.957032    1.407248   -0.332172 N.ar      1 <1>        -0.554600 
     26 C          -1.419666    5.897479    0.583053 C.ar      1 <1>        -0.204700 
     27 C          -1.107781    7.204450    0.919357 C.ar      1 <1>        -0.140300 
     28 H           2.246286    6.841474    1.369122 H         1 <1>         0.157400 
     29 H           1.681098    4.505392    0.766361 H         1 <1>         0.180300 
     30 H          -1.824753    3.499502    0.005154 H         1 <1>         0.352100 
     31 H           3.450883    0.133070   -0.105647 H         1 <1>         0.355800 
     32 H           3.588359    1.830045    0.285506 H         1 <1>         0.350200 
     33 H          -2.693802   -0.574166    1.170593 H         1 <1>         0.142900 
     34 H          -5.167925   -0.671779    0.996264 H         1 <1>         0.136600 
     35 H          -7.214687   -0.887459   -0.399540 H         1 <1>         0.131600 
     36 H          -8.265903   -1.175054   -2.619807 H         1 <1>         0.132300 
     37 H          -6.850486   -1.362786   -4.660632 H         1 <1>         0.133100 
     38 H          -4.387413   -1.263690   -4.482986 H         1 <1>         0.133400 
     39 H          -2.323291   -1.038812   -3.075336 H         1 <1>         0.143500 
     40 H          -2.450907    5.632673    0.361655 H         1 <1>         0.140700 
     41 H          -1.889100    7.956360    0.961142 H         1 <1>         0.159700 
@<TRIPOS>BOND
     1   22   38 1    
     2   21   37 1    
     3   24   39 1    
     4   22   21 ar   
     5   23   22 ar   
     6   21   20 ar   
     7   24   23 ar   
     8   15   24 ar   
     9   23   18 ar   
    10   11   32 1    
    11   11   31 1    
    12   10   11 1    
    13    4   28 1    
    14    2    1 3    
    15   20   36 1    
    16   20   19 ar   
    17    3    2 1    
    18    4    3 ar   
    19    5    4 ar   
    20    5   29 1    
    21   10    9 ar   
    22   12   10 ar   
    23   27    3 ar   
    24    8    9 ar   
    25    6    5 ar   
    26   13   12 ar   
    27   27   41 1    
    28   26   27 ar   
    29    6   26 ar   
    30    7    6 1    
    31    8    7 1    
    32   25    8 ar   
    33   26   40 1    
    34    7   30 1    
    35   13   25 ar   
    36   14   13 1    
    37   14   15 1    
    38   15   16 ar   
    39   18   19 ar   
    40   18   17 ar   
    41   19   35 1    
    42   16   17 ar   
    43   16   33 1    
    44   17   34 1    
@<TRIPOS>SUBSTRUCTURE
     1 ****       32 TEMP              0 ****  ****    0 ROOT 
