#	Name:			CFE-2008-ZL-22
#	Creating user name:	Administrator
#	Creation time:		Sun Jul 05 17:10:00 2020

#	Modifying user name:	Administrator
#	Modification time:	Sun Jul 05 17:12:51 2020

@<TRIPOS>MOLECULE
CFE-2008-ZL-22
   41    44     1     0     0
SMALL
MULLIKEN_CHARGES
INVALID_CHARGES
Gaussian 16 #p B3LYP/6-31G* opt
@<TRIPOS>ATOM
      1 N           7.771607   -3.795249   -0.264312 N.1       1 <1>        -0.484300 
      2 C           6.948387   -2.974872   -0.197964 C.1       1 <1>         0.228400 
      3 C           5.938673   -1.963947   -0.115090 C.ar      1 <1>         0.132300 
      4 C           6.277016   -0.648136    0.245942 C.ar      1 <1>        -0.140500 
      5 C           5.294275    0.324978    0.324701 C.ar      1 <1>        -0.205300 
      6 C           3.947487    0.018264    0.046976 C.ar      1 <1>         0.379500 
      7 N           3.033093    1.071346    0.153676 N.pl3     1 <1>        -0.776300 
      8 C           1.674706    1.137484   -0.028431 C.ar      1 <1>         0.721200 
      9 N           1.159978    2.365145    0.165182 N.ar      1 <1>        -0.562400 
     10 C          -0.167452    2.429647   -0.004278 C.ar      1 <1>         0.666700 
     11 N          -0.770360    3.623476    0.201269 N.3       1 <1>        -0.770200 
     12 N          -0.971232    1.397059   -0.345924 N.ar      1 <1>        -0.521600 
     13 C          -0.316998    0.259327   -0.511330 C.ar      1 <1>         0.689600 
     14 O          -1.009367   -0.851619   -0.856141 O.3       1 <1>        -0.534000 
     15 C          -2.377754   -0.759534   -1.079200 C.ar      1 <1>         0.328800 
     16 C          -3.235823   -1.188090   -0.043796 C.ar      1 <1>        -0.149400 
     17 C          -4.593455   -1.213128   -0.244750 C.ar      1 <1>        -0.204100 
     18 C          -5.153549   -0.812135   -1.485869 C.ar      1 <1>         0.154300 
     19 C          -6.556434   -0.832756   -1.707499 C.ar      1 <1>        -0.197000 
     20 C          -7.090543   -0.444962   -2.914165 C.ar      1 <1>        -0.130500 
     21 C          -6.236587   -0.017534   -3.958036 C.ar      1 <1>        -0.133600 
     22 C          -4.871705    0.015342   -3.780754 C.ar      1 <1>        -0.187700 
     23 C          -4.287723   -0.378438   -2.547196 C.ar      1 <1>         0.086800 
     24 C          -2.883520   -0.370131   -2.300210 C.ar      1 <1>        -0.000800 
     25 BR         -1.662575    0.183145   -3.654006 Br        1 <1>        -0.104600 
     26 N           0.989949    0.038558   -0.369636 N.ar      1 <1>        -0.540500 
     27 C           3.605448   -1.297324   -0.314921 C.ar      1 <1>        -0.159800 
     28 C           4.595835   -2.268799   -0.392160 C.ar      1 <1>        -0.154600 
     29 H           7.310136   -0.397025    0.462924 H         1 <1>         0.157900 
     30 H           5.566971    1.339738    0.605260 H         1 <1>         0.136600 
     31 H           3.418987    1.970778    0.412433 H         1 <1>         0.346900 
     32 H          -0.194544    4.443797    0.311159 H         1 <1>         0.349400 
     33 H          -1.736232    3.725060   -0.070514 H         1 <1>         0.354200 
     34 H          -2.791079   -1.496954    0.896428 H         1 <1>         0.152100 
     35 H          -5.257726   -1.543287    0.549141 H         1 <1>         0.142500 
     36 H          -7.202524   -1.163929   -0.898025 H         1 <1>         0.136200 
     37 H          -8.165571   -0.466146   -3.068978 H         1 <1>         0.136400 
     38 H          -6.661997    0.287823   -4.909978 H         1 <1>         0.137600 
     39 H          -4.222218    0.343674   -4.584165 H         1 <1>         0.156600 
     40 H           2.574613   -1.539772   -0.529823 H         1 <1>         0.202300 
     41 H           4.326421   -3.282178   -0.672483 H         1 <1>         0.160800 
@<TRIPOS>BOND
     1   22   39 1    
     2   24   25 1    
     3   21   38 1    
     4   22   21 ar   
     5   23   22 ar   
     6   21   20 ar   
     7   11   32 1    
     8    5   30 1    
     9    7   31 1    
    10    4   29 1    
    11    5    4 ar   
    12    6    5 ar   
    13   11   33 1    
    14    4    3 ar   
    15   24   23 ar   
    16   15   24 ar   
    17   10    9 ar   
    18    8    9 ar   
    19   10   11 1    
    20    7    6 1    
    21    8    7 1    
    22    6   27 ar   
    23   23   18 ar   
    24   12   10 ar   
    25   26    8 ar   
    26    3    2 1    
    27   28    3 ar   
    28    2    1 3    
    29   27   28 ar   
    30   27   40 1    
    31   13   12 ar   
    32   28   41 1    
    33   13   26 ar   
    34   20   37 1    
    35   20   19 ar   
    36   14   13 1    
    37   14   15 1    
    38   15   16 ar   
    39   18   19 ar   
    40   18   17 ar   
    41   19   36 1    
    42   16   17 ar   
    43   16   34 1    
    44   17   35 1    
@<TRIPOS>SUBSTRUCTURE
     1 ****       31 TEMP              0 ****  ****    0 ROOT 
