#	Name:			CFE-2008-ZL-26
#	Creating user name:	Administrator
#	Creation time:		Sun Jul 05 17:10:00 2020

#	Modifying user name:	Administrator
#	Modification time:	Sun Jul 05 17:12:51 2020

@<TRIPOS>MOLECULE
CFE-2008-ZL-26
   41    44     1     0     0
SMALL
MULLIKEN_CHARGES
INVALID_CHARGES
Gaussian 16 #p B3LYP/6-31G* opt
@<TRIPOS>ATOM
      1 N           0.816063    9.999666    1.864848 N.1       1 <1>        -0.483100 
      2 C           0.548019    8.903747    1.578059 C.1       1 <1>         0.228300 
      3 C           0.218099    7.556621    1.225152 C.ar      1 <1>         0.132500 
      4 C          -1.116529    7.190620    0.977202 C.ar      1 <1>        -0.140200 
      5 C          -1.427561    5.884651    0.635935 C.ar      1 <1>        -0.204500 
      6 C          -0.420916    4.904201    0.531380 C.ar      1 <1>         0.381800 
      7 N          -0.834650    3.617345    0.178405 N.pl3     1 <1>        -0.778700 
      8 C          -0.152922    2.438019    0.006799 C.ar      1 <1>         0.722500 
      9 N           1.165800    2.376375    0.188139 N.ar      1 <1>        -0.550500 
     10 C           1.685409    1.146519   -0.018125 C.ar      1 <1>         0.670600 
     11 N           3.023134    1.014663    0.123034 N.3       1 <1>        -0.770000 
     12 N           0.999135    0.044701   -0.366410 N.ar      1 <1>        -0.517600 
     13 C          -0.303649    0.263790   -0.505706 C.ar      1 <1>         0.684700 
     14 O          -1.005127   -0.840508   -0.853751 O.3       1 <1>        -0.531200 
     15 C          -2.377067   -0.743655   -1.043222 C.ar      1 <1>         0.358300 
     16 C          -2.854378   -0.445496   -2.338201 C.ar      1 <1>        -0.141900 
     17 C          -4.203727   -0.440487   -2.588373 C.ar      1 <1>        -0.207100 
     18 C          -5.136246   -0.734880   -1.558674 C.ar      1 <1>         0.154000 
     19 C          -6.535431   -0.735043   -1.802438 C.ar      1 <1>        -0.196300 
     20 C          -7.430861   -1.024170   -0.798874 C.ar      1 <1>        -0.130800 
     21 C          -6.960381   -1.328384    0.500052 C.ar      1 <1>        -0.133500 
     22 C          -5.610885   -1.339034    0.774650 C.ar      1 <1>        -0.194800 
     23 C          -4.661061   -1.044346   -0.239425 C.ar      1 <1>         0.122400 
     24 C          -3.251046   -1.038939   -0.018464 C.ar      1 <1>        -0.186200 
     25 CL         -2.604301   -1.409031    1.566690 Cl        1 <1>         0.013400 
     26 N          -0.954811    1.409517   -0.347996 N.ar      1 <1>        -0.554700 
     27 C           0.914894    5.267895    0.778781 C.ar      1 <1>        -0.154200 
     28 C           1.221235    6.579200    1.120660 C.ar      1 <1>        -0.152900 
     29 H          -1.902758    7.934498    1.054190 H         1 <1>         0.159800 
     30 H          -2.463323    5.612449    0.447040 H         1 <1>         0.140900 
     31 H          -1.827297    3.496209    0.018936 H         1 <1>         0.352300 
     32 H           3.555026    1.778577    0.509409 H         1 <1>         0.350300 
     33 H           3.420384    0.088178    0.097136 H         1 <1>         0.356400 
     34 H          -2.128342   -0.231853   -3.115760 H         1 <1>         0.150300 
     35 H          -4.574415   -0.212981   -3.584090 H         1 <1>         0.142200 
     36 H          -6.885596   -0.500801   -2.804745 H         1 <1>         0.136100 
     37 H          -8.498324   -1.020359   -1.000233 H         1 <1>         0.136700 
     38 H          -7.671043   -1.556524    1.289494 H         1 <1>         0.138100 
     39 H          -5.259309   -1.573778    1.772769 H         1 <1>         0.158300 
     40 H           1.690073    4.519997    0.700322 H         1 <1>         0.180500 
     41 H           2.253959    6.854349    1.310235 H         1 <1>         0.157600 
@<TRIPOS>BOND
     1   17   35 1    
     2   16   34 1    
     3   19   36 1    
     4   16   17 ar   
     5   17   18 ar   
     6   15   16 ar   
     7   18   19 ar   
     8   19   20 ar   
     9   18   23 ar   
    10   14   15 1    
    11   15   24 ar   
    12   13   14 1    
    13   26   13 ar   
    14    8   26 ar   
    15   13   12 ar   
    16    7   31 1    
    17   20   37 1    
    18   12   10 ar   
    19    5   30 1    
    20    7    8 1    
    21    6    7 1    
    22    8    9 ar   
    23    5    6 ar   
    24    5    4 ar   
    25   20   21 ar   
    26    6   27 ar   
    27   10    9 ar   
    28   10   11 1    
    29    4   29 1    
    30    4    3 ar   
    31   11   33 1    
    32   11   32 1    
    33   27   40 1    
    34   27   28 ar   
    35    3   28 ar   
    36    3    2 1    
    37   28   41 1    
    38    2    1 3    
    39   23   24 ar   
    40   23   22 ar   
    41   24   25 1    
    42   21   22 ar   
    43   21   38 1    
    44   22   39 1    
@<TRIPOS>SUBSTRUCTURE
     1 ****       30 TEMP              0 ****  ****    0 ROOT 
