#	Name:			CFE-2008-ZL-4
#	Creating user name:	Administrator
#	Creation time:		Sun Jul 05 17:10:01 2020

#	Modifying user name:	Administrator
#	Modification time:	Sun Jul 05 17:12:51 2020

@<TRIPOS>MOLECULE
CFE-2008-ZL-4
   44    47     1     0     0
SMALL
MULLIKEN_CHARGES
INVALID_CHARGES
Gaussian 16 #p B3LYP/6-31G* opt
@<TRIPOS>ATOM
      1 C          -0.136022    4.848326    0.582905 C.3       1 <1>        -0.292300 
      2 N          -0.803296    3.623164    0.184633 N.3       1 <1>        -0.623100 
      3 C          -0.181465    2.439542    0.004026 C.ar      1 <1>         0.696600 
      4 N           1.153009    2.391302    0.183962 N.ar      1 <1>        -0.564500 
      5 C           1.677078    1.177652   -0.019020 C.ar      1 <1>         0.717300 
      6 N           3.027837    0.967731    0.125815 N.pl3     1 <1>        -0.777600 
      7 C           4.085703    1.810823    0.469790 C.ar      1 <1>         0.381900 
      8 C           5.368886    1.229203    0.513815 C.ar      1 <1>        -0.203800 
      9 C           6.482097    1.983645    0.845424 C.ar      1 <1>        -0.140700 
     10 C           6.345192    3.350730    1.144633 C.ar      1 <1>         0.132300 
     11 C           7.489830    4.137787    1.487892 C.1       1 <1>         0.227600 
     12 N           8.420788    4.778618    1.767219 N.1       1 <1>        -0.484200 
     13 C           5.066557    3.930220    1.100856 C.ar      1 <1>        -0.155300 
     14 C           3.946561    3.178278    0.769014 C.ar      1 <1>        -0.159900 
     15 N           1.005163    0.065305   -0.370376 N.ar      1 <1>        -0.550700 
     16 C          -0.304493    0.262635   -0.510658 C.ar      1 <1>         0.674200 
     17 O          -0.981791   -0.855442   -0.848462 O.3       1 <1>        -0.537000 
     18 C          -2.353053   -0.794060   -1.106736 C.ar      1 <1>         0.355800 
     19 C          -2.823182   -0.151657   -2.275966 C.ar      1 <1>        -0.134800 
     20 C          -4.164525   -0.191889   -2.572010 C.ar      1 <1>        -0.210200 
     21 C          -5.085781   -0.871119   -1.727893 C.ar      1 <1>         0.146800 
     22 C          -6.475914   -0.928643   -2.012180 C.ar      1 <1>        -0.194100 
     23 C          -7.340369   -1.598696   -1.175717 C.ar      1 <1>        -0.134800 
     24 C          -6.851021   -2.244393   -0.014054 C.ar      1 <1>        -0.136200 
     25 C          -5.508324   -2.208787    0.289434 C.ar      1 <1>        -0.189400 
     26 C          -4.590903   -1.524747   -0.552313 C.ar      1 <1>         0.127800 
     27 C          -3.200533   -1.468117   -0.265035 C.ar      1 <1>        -0.236400 
     28 N          -0.969725    1.398534   -0.345531 N.ar      1 <1>        -0.542600 
     29 H           0.631157    5.134855   -0.144259 H         1 <1>         0.178100 
     30 H           0.341824    4.743583    1.563541 H         1 <1>         0.176400 
     31 H          -0.882853    5.643176    0.637952 H         1 <1>         0.160700 
     32 H          -1.804592    3.605869    0.058809 H         1 <1>         0.347400 
     33 H           3.269278    0.002194   -0.061622 H         1 <1>         0.351800 
     34 H           5.486821    0.172843    0.284187 H         1 <1>         0.140700 
     35 H           7.463208    1.521085    0.874902 H         1 <1>         0.159300 
     36 H           4.952692    4.985001    1.330920 H         1 <1>         0.155800 
     37 H           2.965525    3.628831    0.737190 H         1 <1>         0.188900 
     38 H          -2.117911    0.360498   -2.921419 H         1 <1>         0.142000 
     39 H          -4.537655    0.297426   -3.468404 H         1 <1>         0.135600 
     40 H          -6.847514   -0.432735   -2.905942 H         1 <1>         0.130900 
     41 H          -8.402000   -1.635330   -1.404477 H         1 <1>         0.131600 
     42 H          -7.541885   -2.770927    0.638948 H         1 <1>         0.132400 
     43 H          -5.131442   -2.704884    1.180602 H         1 <1>         0.133000 
     44 H          -2.802687   -1.962139    0.616329 H         1 <1>         0.143000 
@<TRIPOS>BOND
     1   20   39 1    
     2   19   38 1    
     3   19   20 ar   
     4   20   21 ar   
     5   22   40 1    
     6   18   19 ar   
     7   21   22 ar   
     8   22   23 ar   
     9   21   26 ar   
    10    1   29 1    
    11   17   18 1    
    12   18   27 ar   
    13   16   17 1    
    14    6   33 1    
    15    8   34 1    
    16   16   15 ar   
    17    5   15 ar   
    18   28   16 ar   
    19    5    6 1    
    20    6    7 1    
    21    7    8 ar   
    22    8    9 ar   
    23    4    5 ar   
    24    9   35 1    
    25    3   28 ar   
    26    7   14 ar   
    27    9   10 ar   
    28    3    4 ar   
    29    2    3 1    
    30   14   37 1    
    31   14   13 ar   
    32   13   10 ar   
    33   10   11 1    
    34    2   32 1    
    35    2    1 1    
    36   13   36 1    
    37   11   12 3    
    38   23   41 1    
    39   23   24 ar   
    40    1   31 1    
    41    1   30 1    
    42   26   27 ar   
    43   26   25 ar   
    44   27   44 1    
    45   24   25 ar   
    46   24   42 1    
    47   25   43 1    
@<TRIPOS>SUBSTRUCTURE
     1 ****       34 TEMP              0 ****  ****    0 ROOT 
