#	Name:			CFE-2008-ZL-16
#	Creating user name:	Administrator
#	Creation time:		Sun Jul 05 17:10:00 2020

#	Modifying user name:	Administrator
#	Modification time:	Sun Jul 05 17:12:51 2020

@<TRIPOS>MOLECULE
CFE-2008-ZL-16
   41    44     1     0     0
SMALL
MULLIKEN_CHARGES
INVALID_CHARGES
Gaussian 16 #p B3LYP/6-31G* opt
@<TRIPOS>ATOM
      1 N           0.822183   10.007701    1.832379 N.1       1 <1>        -0.482500 
      2 C           0.553014    8.910907    1.550313 C.1       1 <1>         0.228700 
      3 C           0.221977    7.562387    1.203633 C.ar      1 <1>         0.132800 
      4 C           1.223653    6.582467    1.110812 C.ar      1 <1>        -0.152800 
      5 C           0.916524    5.269620    0.775285 C.ar      1 <1>        -0.154100 
      6 C          -0.418592    4.907457    0.522743 C.ar      1 <1>         0.381100 
      7 N          -0.833658    3.618415    0.176991 N.pl3     1 <1>        -0.778200 
      8 C          -0.152514    2.439178    0.007714 C.ar      1 <1>         0.721600 
      9 N           1.166798    2.377671    0.184496 N.ar      1 <1>        -0.550700 
     10 C           1.685255    1.146780   -0.019601 C.ar      1 <1>         0.673100 
     11 N           3.021691    1.014309    0.122796 N.3       1 <1>        -0.771300 
     12 N           0.997671    0.043574   -0.361788 N.ar      1 <1>        -0.519100 
     13 C          -0.306070    0.262323   -0.503063 C.ar      1 <1>         0.672600 
     14 O          -1.001209   -0.840867   -0.861108 O.3       1 <1>        -0.535000 
     15 C          -2.388266   -0.789434   -0.982610 C.ar      1 <1>         0.361400 
     16 C          -3.188336   -0.609699    0.168156 C.ar      1 <1>        -0.140500 
     17 C          -4.554907   -0.663265    0.043362 C.ar      1 <1>        -0.160300 
     18 CL         -5.523265   -0.428301    1.496602 Cl        1 <1>        -0.010800 
     19 C          -5.199613   -0.903896   -1.206698 C.ar      1 <1>         0.149800 
     20 C          -6.607272   -0.968254   -1.375660 C.ar      1 <1>        -0.196300 
     21 C          -7.156973   -1.208984   -2.615207 C.ar      1 <1>        -0.133500 
     22 C          -6.327001   -1.397613   -3.745024 C.ar      1 <1>        -0.131300 
     23 C          -4.958536   -1.341886   -3.613548 C.ar      1 <1>        -0.191000 
     24 C          -4.353920   -1.094394   -2.352021 C.ar      1 <1>         0.129700 
     25 C          -2.942621   -1.031207   -2.212067 C.ar      1 <1>        -0.230500 
     26 N          -0.955646    1.409039   -0.342048 N.ar      1 <1>        -0.555900 
     27 C          -1.423899    5.890247    0.615581 C.ar      1 <1>        -0.204500 
     28 C          -1.112012    7.197759    0.950482 C.ar      1 <1>        -0.140100 
     29 H           2.255934    6.856649    1.304363 H         1 <1>         0.157900 
     30 H           1.690766    4.519908    0.705141 H         1 <1>         0.180100 
     31 H          -1.825488    3.499527    0.010863 H         1 <1>         0.353100 
     32 H           3.563379    1.787442    0.474849 H         1 <1>         0.351500 
     33 H           3.427467    0.093086    0.068043 H         1 <1>         0.357000 
     34 H          -2.723070   -0.432383    1.129708 H         1 <1>         0.164200 
     35 H          -7.247460   -0.825834   -0.512337 H         1 <1>         0.158400 
     36 H          -8.236620   -1.255241   -2.726490 H         1 <1>         0.137800 
     37 H          -6.773563   -1.587345   -4.717119 H         1 <1>         0.137600 
     38 H          -4.314428   -1.486360   -4.477264 H         1 <1>         0.138000 
     39 H          -2.300008   -1.179306   -3.073995 H         1 <1>         0.149200 
     40 H          -2.459145    5.619139    0.422259 H         1 <1>         0.142300 
     41 H          -1.897036    7.943670    1.018347 H         1 <1>         0.160700 
@<TRIPOS>BOND
     1   17   18 1    
     2   16   34 1    
     3   16   17 ar   
     4   15   16 ar   
     5   17   19 ar   
     6   20   35 1    
     7   11   33 1    
     8   11   32 1    
     9   10   11 1    
    10   10   12 ar   
    11   13   12 ar   
    12    9   10 ar   
    13   13   14 1    
    14   14   15 1    
    15   26   13 ar   
    16    8    9 ar   
    17   19   20 ar   
    18   19   24 ar   
    19   15   25 ar   
    20   20   21 ar   
    21    8   26 ar   
    22    7    8 1    
    23    5   30 1    
    24    6    5 ar   
    25    5    4 ar   
    26    7    6 1    
    27    7   31 1    
    28    4   29 1    
    29    6   27 ar   
    30    4    3 ar   
    31   27   40 1    
    32   27   28 ar   
    33    3   28 ar   
    34    3    2 1    
    35   28   41 1    
    36    2    1 3    
    37   25   24 ar   
    38   25   39 1    
    39   24   23 ar   
    40   21   36 1    
    41   21   22 ar   
    42   23   22 ar   
    43   23   38 1    
    44   22   37 1    
@<TRIPOS>SUBSTRUCTURE
     1 ****       33 TEMP              0 ****  ****    0 ROOT 
