#	Name:			CFE-2008-ZL-3
#	Creating user name:	Administrator
#	Creation time:		Sun Jul 05 17:10:01 2020

#	Modifying user name:	Administrator
#	Modification time:	Sun Jul 05 17:12:51 2020

@<TRIPOS>MOLECULE
CFE-2008-ZL-3
   41    44     1     0     0
SMALL
MULLIKEN_CHARGES
INVALID_CHARGES
Gaussian 16 #p B3LYP/6-31G* opt
@<TRIPOS>ATOM
      1 N           0.942553    9.964009    1.900805 N.1       1 <1>        -0.479900 
      2 C           0.659511    8.873443    1.608654 C.1       1 <1>         0.230900 
      3 C           0.308328    7.533054    1.249018 C.ar      1 <1>         0.134500 
      4 C           1.294001    6.537652    1.151876 C.ar      1 <1>        -0.153600 
      5 C           0.966881    5.232434    0.803643 C.ar      1 <1>        -0.159100 
      6 C          -0.373559    4.898631    0.543365 C.ar      1 <1>         0.377100 
      7 N          -0.814011    3.617178    0.184372 N.pl3     1 <1>        -0.774800 
      8 C          -0.153379    2.434472    0.005973 C.ar      1 <1>         0.726600 
      9 N           1.172231    2.362217    0.176103 N.ar      1 <1>        -0.532600 
     10 C           1.668413    1.139159   -0.028914 C.ar      1 <1>         0.667100 
     11 N           3.054341    1.055418    0.147672 N.2       1 <1>        -0.447400 
     12 N           3.552486   -0.076636   -0.037342 N.2       1 <1>         0.475000 
     13 N           4.153854   -1.027084   -0.166699 N.2       1 <1>        -0.202700 
     14 N           0.991216    0.040699   -0.371071 N.ar      1 <1>        -0.515600 
     15 C          -0.323019    0.257277   -0.511428 C.ar      1 <1>         0.680400 
     16 O          -1.014033   -0.843228   -0.855156 O.3       1 <1>        -0.533500 
     17 C          -2.401474   -0.760959   -1.046837 C.ar      1 <1>         0.276500 
     18 C          -2.888974   -0.420460   -2.283337 C.ar      1 <1>        -0.152800 
     19 C          -4.286532   -0.415948   -2.503327 C.ar      1 <1>        -0.152200 
     20 C          -5.152493   -0.753950   -1.488641 C.ar      1 <1>        -0.177400 
     21 C          -4.662955   -1.121717   -0.206433 C.ar      1 <1>         0.119500 
     22 C          -5.531438   -1.484528    0.858015 C.ar      1 <1>        -0.195400 
     23 C          -5.030888   -1.845075    2.088291 C.ar      1 <1>        -0.130000 
     24 C          -3.632587   -1.864589    2.312047 C.ar      1 <1>        -0.135700 
     25 C          -2.758597   -1.517962    1.306363 C.ar      1 <1>        -0.189300 
     26 C          -3.248620   -1.133808    0.030347 C.ar      1 <1>         0.122300 
     27 N          -0.959441    1.407229   -0.343163 N.ar      1 <1>        -0.535000 
     28 C          -1.363222    5.895334    0.640286 C.ar      1 <1>        -0.204200 
     29 C          -1.030779    7.194718    0.987829 C.ar      1 <1>        -0.139900 
     30 H           2.330002    6.791667    1.352132 H         1 <1>         0.164100 
     31 H           1.731823    4.472990    0.731548 H         1 <1>         0.202100 
     32 H          -1.809444    3.517474    0.025658 H         1 <1>         0.355500 
     33 H          -2.198213   -0.159362   -3.078424 H         1 <1>         0.144300 
     34 H          -4.668168   -0.143798   -3.483006 H         1 <1>         0.139800 
     35 H          -6.226326   -0.750687   -1.657318 H         1 <1>         0.134700 
     36 H          -6.604151   -1.474580    0.680660 H         1 <1>         0.135200 
     37 H          -5.707661   -2.121146    2.892160 H         1 <1>         0.136100 
     38 H          -3.248511   -2.159341    3.284620 H         1 <1>         0.137100 
     39 H          -1.687146   -1.547485    1.473621 H         1 <1>         0.148500 
     40 H          -2.402015    5.643490    0.440511 H         1 <1>         0.141900 
     41 H          -1.802960    7.953582    1.059226 H         1 <1>         0.161800 
@<TRIPOS>BOND
     1   19   34 1    
     2   18   33 1    
     3   18   19 ar   
     4   19   20 ar   
     5   17   18 ar   
     6   20   35 1    
     7   20   21 ar   
     8   16   17 1    
     9   17   26 ar   
    10   15   16 1    
    11    7   32 1    
    12   27   15 ar   
    13    8   27 ar   
    14   28   40 1    
    15   15   14 ar   
    16    7    8 1    
    17    6    7 1    
    18    8    9 ar   
    19   28    6 ar   
    20   28   29 ar   
    21   29   41 1    
    22   14   10 ar   
    23    6    5 ar   
    24   29    3 ar   
    25   21   26 ar   
    26   21   22 ar   
    27    9   10 ar   
    28   10   11 1    
    29    5   31 1    
    30    5    4 ar   
    31    3    4 ar   
    32    3    2 1    
    33   26   25 ar   
    34   11   12 2    
    35    4   30 1    
    36   12   13 2    
    37    2    1 3    
    38   22   36 1    
    39   22   23 ar   
    40   25   39 1    
    41   25   24 ar   
    42   23   24 ar   
    43   23   37 1    
    44   24   38 1    
@<TRIPOS>SUBSTRUCTURE
     1 ****       40 TEMP              0 ****  ****    0 ROOT 
