#	Name:			CFE-2008-ZL-18
#	Creating user name:	Administrator
#	Creation time:		Sun Jul 05 17:10:00 2020

#	Modifying user name:	Administrator
#	Modification time:	Sun Jul 05 17:12:51 2020

@<TRIPOS>MOLECULE
CFE-2008-ZL-18
   47    50     1     0     0
SMALL
MULLIKEN_CHARGES
INVALID_CHARGES
Gaussian 16 #p B3LYP/6-31G* opt
@<TRIPOS>ATOM
      1 C          -2.916620    3.738742    1.473583 C.3       1 <1>        -0.440600 
      2 C          -2.217329    3.890086    0.119643 C.3       1 <1>        -0.131400 
      3 N          -0.780840    3.639781    0.178011 N.3       1 <1>        -0.627600 
      4 C          -0.194971    2.435832    0.007599 C.ar      1 <1>         0.706400 
      5 N           1.145691    2.388207    0.183051 N.ar      1 <1>        -0.567600 
      6 C           1.675194    1.181950   -0.018947 C.ar      1 <1>         0.720700 
      7 N           3.025953    0.973523    0.122550 N.pl3     1 <1>        -0.777300 
      8 C           4.083148    1.820600    0.460696 C.ar      1 <1>         0.382000 
      9 C           5.365670    1.239213    0.517316 C.ar      1 <1>        -0.204300 
     10 C           6.477732    1.997853    0.842974 C.ar      1 <1>        -0.140300 
     11 C           6.339947    3.368734    1.123362 C.ar      1 <1>         0.132200 
     12 C           7.483518    4.160041    1.460762 C.1       1 <1>         0.228000 
     13 N           8.413823    4.803926    1.735135 N.1       1 <1>        -0.483500 
     14 C           5.061803    3.948202    1.066707 C.ar      1 <1>        -0.153100 
     15 C           3.942956    3.191824    0.740605 C.ar      1 <1>        -0.154400 
     16 N           1.004552    0.061803   -0.366893 N.ar      1 <1>        -0.550500 
     17 C          -0.300712    0.257078   -0.502849 C.ar      1 <1>         0.671700 
     18 O          -0.977921   -0.857647   -0.864790 O.3       1 <1>        -0.537000 
     19 C          -2.366209   -0.829888   -0.971173 C.ar      1 <1>         0.363900 
     20 C          -3.154598   -0.707098    0.195274 C.ar      1 <1>        -0.141100 
     21 C          -4.521320   -0.784828    0.086719 C.ar      1 <1>        -0.159800 
     22 CL         -5.474486   -0.621754    1.560019 Cl        1 <1>        -0.011700 
     23 C          -5.177846   -0.995269   -1.162561 C.ar      1 <1>         0.149700 
     24 C          -6.586206   -1.083414   -1.315482 C.ar      1 <1>        -0.196400 
     25 C          -7.147625   -1.292748   -2.555432 C.ar      1 <1>        -0.133600 
     26 C          -6.329403   -1.424699   -3.701790 C.ar      1 <1>        -0.131300 
     27 C          -4.960726   -1.344750   -3.586049 C.ar      1 <1>        -0.191200 
     28 C          -4.344137   -1.128305   -2.324565 C.ar      1 <1>         0.129600 
     29 C          -2.932402   -1.040532   -2.200795 C.ar      1 <1>        -0.230400 
     30 N          -0.974628    1.389895   -0.333344 N.ar      1 <1>        -0.541400 
     31 H          -2.813276    2.715150    1.846389 H         1 <1>         0.168700 
     32 H          -3.985348    3.959924    1.374399 H         1 <1>         0.154600 
     33 H          -2.495367    4.423067    2.218939 H         1 <1>         0.144600 
     34 H          -2.640153    3.191458   -0.604957 H         1 <1>         0.193500 
     35 H          -2.355787    4.903422   -0.273552 H         1 <1>         0.150700 
     36 H          -0.162971    4.373162    0.496835 H         1 <1>         0.337600 
     37 H           3.268644    0.007633   -0.060986 H         1 <1>         0.352200 
     38 H           5.484046    0.179719    0.302581 H         1 <1>         0.140900 
     39 H           7.458669    1.535594    0.882557 H         1 <1>         0.159700 
     40 H           4.947373    5.006030    1.281493 H         1 <1>         0.156700 
     41 H           2.962448    3.642448    0.698249 H         1 <1>         0.178300 
     42 H          -2.679017   -0.556120    1.156328 H         1 <1>         0.163700 
     43 H          -7.217249   -0.984423   -0.439551 H         1 <1>         0.158100 
     44 H          -8.227554   -1.357861   -2.654321 H         1 <1>         0.137600 
     45 H          -6.785129   -1.590209   -4.674024 H         1 <1>         0.137300 
     46 H          -4.325612   -1.445765   -4.462445 H         1 <1>         0.137900 
     47 H          -2.299059   -1.145489   -3.075867 H         1 <1>         0.148700 
@<TRIPOS>BOND
     1    2   35 1    
     2   26   45 1    
     3   27   46 1    
     4    2   34 1    
     5   27   26 ar   
     6   26   25 ar   
     7   28   27 ar   
     8    3    2 1    
     9    2    1 1    
    10    3   36 1    
    11    4    3 1    
    12   29   47 1    
    13   25   44 1    
    14   14   40 1    
    15   24   25 ar   
    16   15   41 1    
    17    4    5 ar   
    18   30    4 ar   
    19   29   28 ar   
    20   28   23 ar   
    21    1   32 1    
    22   19   29 ar   
    23   15   14 ar   
    24   14   11 ar   
    25    6    5 ar   
    26    1   33 1    
    27    1   31 1    
    28   17   30 ar   
    29    8   15 ar   
    30   12   13 3    
    31   11   12 1    
    32   11   10 ar   
    33   23   24 ar   
    34   24   43 1    
    35    6    7 1    
    36   16    6 ar   
    37   23   21 ar   
    38   17   16 ar   
    39   18   17 1    
    40    7    8 1    
    41    8    9 ar   
    42   19   18 1    
    43   19   20 ar   
    44    7   37 1    
    45   10    9 ar   
    46   10   39 1    
    47    9   38 1    
    48   21   20 ar   
    49   21   22 1    
    50   20   42 1    
@<TRIPOS>SUBSTRUCTURE
     1 ****       45 TEMP              0 ****  ****    0 ROOT 
