#	Name:			CFE-2008-ZL-2
#	Creating user name:	Administrator
#	Creation time:		Sun Jul 05 17:10:00 2020

#	Modifying user name:	Administrator
#	Modification time:	Sun Jul 05 17:12:51 2020

@<TRIPOS>MOLECULE
CFE-2008-ZL-2
   41    44     1     0     0
SMALL
MULLIKEN_CHARGES
INVALID_CHARGES
Gaussian 16 #p B3LYP/6-31G* opt
@<TRIPOS>ATOM
      1 N          -7.006484    6.308056   -0.060334 N.1       1 <1>        -0.485000 
      2 C          -5.940697    5.841374   -0.021659 C.1       1 <1>         0.228100 
      3 C          -4.630154    5.268396    0.027093 C.ar      1 <1>         0.132500 
      4 C          -4.434634    3.905360   -0.250110 C.ar      1 <1>        -0.157900 
      5 C          -3.168478    3.335247   -0.205376 C.ar      1 <1>        -0.161500 
      6 C          -2.056498    4.131968    0.122664 C.ar      1 <1>         0.377700 
      7 N          -0.741742    3.661122    0.198444 N.pl3     1 <1>        -0.777100 
      8 C          -0.190439    2.419960   -0.001981 C.ar      1 <1>         0.718700 
      9 N           1.137772    2.375794    0.184524 N.ar      1 <1>        -0.562000 
     10 C           1.672901    1.160056   -0.016624 C.ar      1 <1>         0.666000 
     11 N           3.012639    1.039627    0.125906 N.3       1 <1>        -0.771600 
     12 N           0.998661    0.044084   -0.365062 N.ar      1 <1>        -0.521800 
     13 C          -0.303534    0.245077   -0.509387 C.ar      1 <1>         0.679400 
     14 O          -0.990931   -0.863599   -0.860447 O.3       1 <1>        -0.539600 
     15 C          -2.374805   -0.793827   -1.051716 C.ar      1 <1>         0.280200 
     16 C          -3.217720   -0.908303    0.026297 C.ar      1 <1>        -0.155100 
     17 C          -4.617647   -0.917122   -0.179535 C.ar      1 <1>        -0.153000 
     18 C          -5.136454   -0.818794   -1.450790 C.ar      1 <1>        -0.182100 
     19 C          -4.279309   -0.714969   -2.579384 C.ar      1 <1>         0.120500 
     20 C          -4.783144   -0.620987   -3.904645 C.ar      1 <1>        -0.195100 
     21 C          -3.930340   -0.527068   -4.980770 C.ar      1 <1>        -0.129600 
     22 C          -2.528037   -0.526536   -4.782402 C.ar      1 <1>        -0.135700 
     23 C          -2.001112   -0.614536   -3.513626 C.ar      1 <1>        -0.187600 
     24 C          -2.858405   -0.705445   -2.385231 C.ar      1 <1>         0.115900 
     25 N          -0.973010    1.388302   -0.350985 N.ar      1 <1>        -0.543300 
     26 C          -2.251756    5.499513    0.400278 C.ar      1 <1>        -0.204400 
     27 C          -3.516848    6.062101    0.354247 C.ar      1 <1>        -0.141000 
     28 H          -5.287219    3.283809   -0.504407 H         1 <1>         0.160500 
     29 H          -3.030348    2.285971   -0.421215 H         1 <1>         0.207900 
     30 H          -0.038483    4.344280    0.450629 H         1 <1>         0.346700 
     31 H           3.535873    1.812237    0.506805 H         1 <1>         0.349000 
     32 H           3.419093    0.117168    0.103430 H         1 <1>         0.354100 
     33 H          -2.801021   -0.987859    1.025032 H         1 <1>         0.143000 
     34 H          -5.279043   -1.003895    0.677625 H         1 <1>         0.139500 
     35 H          -6.211894   -0.826409   -1.609023 H         1 <1>         0.134600 
     36 H          -5.860236   -0.626114   -4.053596 H         1 <1>         0.134800 
     37 H          -4.330771   -0.456018   -5.988314 H         1 <1>         0.134500 
     38 H          -1.864666   -0.458610   -5.640296 H         1 <1>         0.134500 
     39 H          -0.927265   -0.627009   -3.360961 H         1 <1>         0.150900 
     40 H          -1.397689    6.123126    0.654359 H         1 <1>         0.136800 
     41 H          -3.651292    7.116976    0.570646 H         1 <1>         0.157800 
@<TRIPOS>BOND
     1   22   38 1    
     2   21   37 1    
     3   22   21 ar   
     4   23   22 ar   
     5   20   21 ar   
     6   23   39 1    
     7   24   23 ar   
     8   26   40 1    
     9   20   36 1    
    10   19   20 ar   
    11   27   41 1    
    12    7   30 1    
    13   26   27 ar   
    14    6   26 ar   
    15   27    3 ar   
    16   11   31 1    
    17    7    6 1    
    18    8    7 1    
    19    8    9 ar   
    20   10    9 ar   
    21   10   11 1    
    22   11   32 1    
    23    6    5 ar   
    24   25    8 ar   
    25    3    2 1    
    26    4    3 ar   
    27   12   10 ar   
    28    2    1 3    
    29   24   19 ar   
    30   15   24 ar   
    31    5    4 ar   
    32    5   29 1    
    33   19   18 ar   
    34    4   28 1    
    35   13   25 ar   
    36   13   12 ar   
    37   14   13 1    
    38   14   15 1    
    39   15   16 ar   
    40   18   35 1    
    41   18   17 ar   
    42   16   17 ar   
    43   16   33 1    
    44   17   34 1    
@<TRIPOS>SUBSTRUCTURE
     1 ****       31 TEMP              0 ****  ****    0 ROOT 
