#	Name:			CFE-2008-ZL-25
#	Creating user name:	Administrator
#	Creation time:		Sun Jul 05 17:10:00 2020

#	Modifying user name:	Administrator
#	Modification time:	Sun Jul 05 17:12:51 2020

@<TRIPOS>MOLECULE
CFE-2008-ZL-25
   44    47     1     0     0
SMALL
MULLIKEN_CHARGES
INVALID_CHARGES
Gaussian 16 #p B3LYP/6-31G* opt
@<TRIPOS>ATOM
      1 C          -2.186003    3.878788    0.154861 C.3       1 <1>        -0.298400 
      2 N          -0.754512    3.636224    0.184388 N.3       1 <1>        -0.624300 
      3 C          -0.177681    2.427655    0.007201 C.ar      1 <1>         0.698000 
      4 N           1.154686    2.360099    0.180302 N.ar      1 <1>        -0.578200 
      5 C           1.672686    1.140134   -0.028250 C.ar      1 <1>         0.723500 
      6 N           3.033144    1.075379    0.147752 N.pl3     1 <1>        -0.777000 
      7 C           3.948482    0.023742    0.039798 C.ar      1 <1>         0.379900 
      8 C           5.299503    0.338912    0.286718 C.ar      1 <1>        -0.205600 
      9 C           6.283837   -0.632365    0.205899 C.ar      1 <1>        -0.140600 
     10 C           5.943448   -1.955151   -0.126309 C.ar      1 <1>         0.132000 
     11 C           6.955069   -2.963775   -0.212500 C.1       1 <1>         0.228100 
     12 N           7.780014   -3.782105   -0.282522 N.1       1 <1>        -0.484900 
     13 C           4.596343   -2.268900   -0.371668 C.ar      1 <1>        -0.154700 
     14 C           3.604253   -1.299360   -0.292110 C.ar      1 <1>        -0.159900 
     15 N           0.991776    0.038824   -0.378132 N.ar      1 <1>        -0.541900 
     16 C          -0.315874    0.255552   -0.508727 C.ar      1 <1>         0.687500 
     17 O          -1.007218   -0.854562   -0.860137 O.3       1 <1>        -0.532200 
     18 C          -2.380328   -0.768425   -1.047459 C.ar      1 <1>         0.359900 
     19 C          -2.864458   -0.414671   -2.325895 C.ar      1 <1>        -0.140400 
     20 C          -4.214148   -0.419236   -2.574047 C.ar      1 <1>        -0.207800 
     21 C          -5.139966   -0.779843   -1.559426 C.ar      1 <1>         0.154400 
     22 C          -6.539348   -0.791832   -1.801825 C.ar      1 <1>        -0.196400 
     23 C          -7.428116   -1.145741   -0.813251 C.ar      1 <1>        -0.130800 
     24 C          -6.950408   -1.505949    0.468575 C.ar      1 <1>        -0.133600 
     25 C          -5.600452   -1.507046    0.741327 C.ar      1 <1>        -0.194600 
     26 C          -4.657596   -1.146116   -0.257517 C.ar      1 <1>         0.122500 
     27 C          -3.247391   -1.127253   -0.037418 C.ar      1 <1>        -0.187200 
     28 CL         -2.591834   -1.561611    1.527540 Cl        1 <1>         0.014200 
     29 N          -0.974689    1.391118   -0.340009 N.ar      1 <1>        -0.539200 
     30 H          -2.361586    4.928591   -0.094775 H         1 <1>         0.158100 
     31 H          -2.643726    3.246250   -0.606618 H         1 <1>         0.200400 
     32 H          -2.664079    3.657619    1.118494 H         1 <1>         0.167600 
     33 H          -0.132881    4.358167    0.519481 H         1 <1>         0.339600 
     34 H           3.418571    1.975048    0.405600 H         1 <1>         0.345800 
     35 H           5.574125    1.359280    0.544153 H         1 <1>         0.135800 
     36 H           7.320046   -0.374157    0.398733 H         1 <1>         0.157400 
     37 H           4.324828   -3.288097   -0.627693 H         1 <1>         0.160500 
     38 H           2.570285   -1.548909   -0.482017 H         1 <1>         0.202300 
     39 H          -2.143779   -0.151269   -3.093012 H         1 <1>         0.149900 
     40 H          -4.590296   -0.149341   -3.557069 H         1 <1>         0.141800 
     41 H          -6.895057   -0.514565   -2.791120 H         1 <1>         0.135800 
     42 H          -8.495800   -1.150575   -1.013548 H         1 <1>         0.136400 
     43 H          -7.655812   -1.785613    1.246181 H         1 <1>         0.137800 
     44 H          -5.243286   -1.785266    1.726137 H         1 <1>         0.158300 
@<TRIPOS>BOND
     1   25   44 1    
     2   27   28 1    
     3   24   43 1    
     4   25   24 ar   
     5   26   25 ar   
     6    1   32 1    
     7   24   23 ar   
     8    2   33 1    
     9    8   35 1    
    10   27   26 ar   
    11   18   27 ar   
    12    6   34 1    
    13    2    1 1    
    14    1   30 1    
    15    1   31 1    
    16    9   36 1    
    17    3    2 1    
    18   26   21 ar   
    19    8    9 ar   
    20    7    8 ar   
    21    3    4 ar   
    22    5    4 ar   
    23    6    7 1    
    24    5    6 1    
    25    9   10 ar   
    26   29    3 ar   
    27    7   14 ar   
    28   15    5 ar   
    29   10   11 1    
    30   13   10 ar   
    31   16   29 ar   
    32   23   42 1    
    33   23   22 ar   
    34   14   13 ar   
    35   14   38 1    
    36   11   12 3    
    37   16   15 ar   
    38   13   37 1    
    39   17   16 1    
    40   17   18 1    
    41   18   19 ar   
    42   21   22 ar   
    43   21   20 ar   
    44   22   41 1    
    45   19   20 ar   
    46   19   39 1    
    47   20   40 1    
@<TRIPOS>SUBSTRUCTURE
     1 ****       34 TEMP              0 ****  ****    0 ROOT 
