#	Name:			XYZ-2009-APC-145-7C
#	Creating user name:	Administrator
#	Creation time:		Sun Jul 05 17:12:39 2020

#	Modifying user name:	Administrator
#	Modification time:	Sun Jul 05 17:12:51 2020

@<TRIPOS>MOLECULE
XYZ-2009-APC-145-7C
   48    51     1     0     0
SMALL
MULLIKEN_CHARGES
INVALID_CHARGES
Gaussian 16 #p B3LYP/6-31G* opt
@<TRIPOS>ATOM
      1 C          -0.529654    4.834627   -2.470201 C.2       1 <1>        -0.343500 
      2 C          -0.157761    5.478195   -1.363725 C.2       1 <1>        -0.065700 
      3 C          -0.191815    4.925668    0.044167 C.3       1 <1>        -0.184600 
      4 N          -0.823496    3.623814    0.159308 N.3       1 <1>        -0.619600 
      5 C          -0.177053    2.440072    0.006378 C.ar      1 <1>         0.697000 
      6 N           1.159868    2.395380    0.155458 N.ar      1 <1>        -0.560700 
      7 C           1.680806    1.176738   -0.019172 C.ar      1 <1>         0.719800 
      8 N           3.028366    0.959693    0.136523 N.pl3     1 <1>        -0.780700 
      9 C           4.091598    1.796974    0.479355 C.ar      1 <1>         0.380300 
     10 C           5.370187    1.205989    0.529706 C.ar      1 <1>        -0.202700 
     11 C           6.487568    1.953643    0.862950 C.ar      1 <1>        -0.140800 
     12 C           6.359297    3.322367    1.157820 C.ar      1 <1>         0.132400 
     13 C           7.508362    4.102253    1.503006 C.1       1 <1>         0.228100 
     14 N           8.443013    4.736805    1.783985 N.1       1 <1>        -0.483900 
     15 C           5.085105    3.911071    1.107853 C.ar      1 <1>        -0.157600 
     16 C           3.961372    3.165734    0.774062 C.ar      1 <1>        -0.157700 
     17 N           1.006720    0.061543   -0.367384 N.ar      1 <1>        -0.549900 
     18 C          -0.298378    0.263057   -0.493401 C.ar      1 <1>         0.683500 
     19 O          -0.986588   -0.835842   -0.891584 O.3       1 <1>        -0.535200 
     20 C          -2.335268   -0.720062   -1.198456 C.ar      1 <1>         0.327700 
     21 C          -3.238127   -1.370902   -0.329811 C.ar      1 <1>        -0.155500 
     22 C          -4.581026   -1.381700   -0.613323 C.ar      1 <1>        -0.202300 
     23 C          -5.085186   -0.738413   -1.773267 C.ar      1 <1>         0.152600 
     24 C          -6.473178   -0.734780   -2.075265 C.ar      1 <1>        -0.196000 
     25 C          -6.953311   -0.108357   -3.201551 C.ar      1 <1>        -0.130900 
     26 C          -6.057212    0.545918   -4.079359 C.ar      1 <1>        -0.133100 
     27 C          -4.705169    0.562459   -3.820553 C.ar      1 <1>        -0.189100 
     28 C          -4.175743   -0.076427   -2.667246 C.ar      1 <1>         0.088100 
     29 C          -2.787187   -0.098335   -2.344308 C.ar      1 <1>         0.004000 
     30 BR         -1.520393    0.733481   -3.503197 Br        1 <1>        -0.102800 
     31 N          -0.967928    1.385967   -0.281737 N.ar      1 <1>        -0.535100 
     32 H          -0.467297    5.318454   -3.440764 H         1 <1>         0.146500 
     33 H          -0.895411    3.810127   -2.465146 H         1 <1>         0.158500 
     34 H           0.209445    6.502782   -1.433684 H         1 <1>         0.134700 
     35 H           0.823610    4.840422    0.442445 H         1 <1>         0.200500 
     36 H          -0.724219    5.626142    0.701499 H         1 <1>         0.163200 
     37 H          -1.805515    3.567268   -0.081086 H         1 <1>         0.343200 
     38 H           3.264826   -0.007982   -0.046213 H         1 <1>         0.352700 
     39 H           5.481257    0.148211    0.303436 H         1 <1>         0.141200 
     40 H           7.465221    1.484142    0.897279 H         1 <1>         0.159500 
     41 H           4.977750    4.967281    1.334202 H         1 <1>         0.156000 
     42 H           2.984038    3.623110    0.736039 H         1 <1>         0.195400 
     43 H          -2.835291   -1.857548    0.552185 H         1 <1>         0.153500 
     44 H          -5.276606   -1.883236    0.053853 H         1 <1>         0.142800 
     45 H          -7.151469   -1.240374   -1.392331 H         1 <1>         0.136400 
     46 H          -8.017597   -0.113561   -3.419396 H         1 <1>         0.136500 
     47 H          -6.439711    1.041431   -4.967348 H         1 <1>         0.137500 
     48 H          -4.024286    1.066623   -4.496650 H         1 <1>         0.155700 
@<TRIPOS>BOND
     1    3   36 1    
     2   22   44 1    
     3   21   43 1    
     4   24   45 1    
     5    4   37 1    
     6    4    3 1    
     7    5    4 1    
     8   21   22 ar   
     9   22   23 ar   
    10    3   35 1    
    11    3    2 1    
    12   20   21 ar   
    13    5   31 ar   
    14    6    5 ar   
    15   23   24 ar   
    16   24   25 ar   
    17   18   31 ar   
    18   23   28 ar   
    19   15   41 1    
    20   16   42 1    
    21    7    6 ar   
    22   25   46 1    
    23    2   34 1    
    24    2    1 2    
    25   16   15 ar   
    26   15   12 ar   
    27    9   16 ar   
    28   25   26 ar   
    29   18   19 1    
    30   17   18 ar   
    31   19   20 1    
    32   20   29 ar   
    33    7   17 ar   
    34    8    7 1    
    35   13   14 3    
    36   12   13 1    
    37   12   11 ar   
    38    9    8 1    
    39    9   10 ar   
    40   28   29 ar   
    41   28   27 ar   
    42    8   38 1    
    43   29   30 1    
    44    1   33 1    
    45    1   32 1    
    46   26   27 ar   
    47   26   47 1    
    48   11   10 ar   
    49   11   40 1    
    50   10   39 1    
    51   27   48 1    
@<TRIPOS>SUBSTRUCTURE
     1 ****       14 TEMP              0 ****  ****    0 ROOT 
