#	Name:			XYZ-2008-EJMC-1230-9R
#	Creating user name:	Administrator
#	Creation time:		Sun Jul 05 17:12:39 2020

#	Modifying user name:	Administrator
#	Modification time:	Sun Jul 05 17:12:51 2020

@<TRIPOS>MOLECULE
XYZ-2008-EJMC-1230-9R
   41    44     1     0     0
SMALL
MULLIKEN_CHARGES
INVALID_CHARGES
Gaussian 16 #p B3LYP/6-31G* opt
@<TRIPOS>ATOM
      1 N           0.945491    9.966782    1.886471 N.1       1 <1>        -0.479700 
      2 C           0.662076    8.875634    1.597142 C.1       1 <1>         0.231000 
      3 C           0.310201    7.534442    1.240844 C.ar      1 <1>         0.134600 
      4 C          -1.029084    7.196210    0.981068 C.ar      1 <1>        -0.139800 
      5 C          -1.362234    5.896324    0.635945 C.ar      1 <1>        -0.204100 
      6 C          -0.372958    4.899277    0.540328 C.ar      1 <1>         0.377200 
      7 N          -0.814156    3.617322    0.182815 N.pl3     1 <1>        -0.774900 
      8 C          -0.153854    2.434532    0.006375 C.ar      1 <1>         0.729200 
      9 N           1.171005    2.360846    0.178753 N.ar      1 <1>        -0.532300 
     10 C           1.668931    1.138935   -0.028796 C.ar      1 <1>         0.669500 
     11 N           3.054128    1.055855    0.146614 N.2       1 <1>        -0.446900 
     12 N           3.552295   -0.076823   -0.035935 N.2       1 <1>         0.475200 
     13 N           4.154095   -1.027048   -0.163367 N.2       1 <1>        -0.200900 
     14 N           0.991609    0.040508   -0.373318 N.ar      1 <1>        -0.513300 
     15 C          -0.320343    0.258209   -0.507858 C.ar      1 <1>         0.689200 
     16 O          -1.015875   -0.842299   -0.855194 O.3       1 <1>        -0.524800 
     17 C          -2.394056   -0.753982   -1.029442 C.ar      1 <1>         0.351600 
     18 C          -2.883639   -0.513512   -2.330849 C.ar      1 <1>        -0.143800 
     19 C          -4.236373   -0.516182   -2.563672 C.ar      1 <1>        -0.206500 
     20 C          -5.156210   -0.760758   -1.510068 C.ar      1 <1>         0.154600 
     21 C          -6.558484   -0.767627   -1.736575 C.ar      1 <1>        -0.195800 
     22 C          -7.441632   -1.008780   -0.709977 C.ar      1 <1>        -0.130100 
     23 C          -6.956048   -1.255838    0.595618 C.ar      1 <1>        -0.133000 
     24 C          -5.603493   -1.258134    0.854280 C.ar      1 <1>        -0.194500 
     25 C          -4.665967   -1.011990   -0.183817 C.ar      1 <1>         0.121900 
     26 C          -3.253373   -1.001371    0.019827 C.ar      1 <1>        -0.183200 
     27 CL         -2.586759   -1.303618    1.610274 Cl        1 <1>         0.017900 
     28 N          -0.959129    1.406514   -0.345002 N.ar      1 <1>        -0.538000 
     29 C           0.967636    5.232782    0.799619 C.ar      1 <1>        -0.158800 
     30 C           1.295540    6.538482    1.145284 C.ar      1 <1>        -0.153500 
     31 H          -1.801005    7.955395    1.051541 H         1 <1>         0.161900 
     32 H          -2.401315    5.644493    0.437266 H         1 <1>         0.141900 
     33 H          -1.810004    3.517851    0.026813 H         1 <1>         0.355200 
     34 H          -2.166835   -0.338708   -3.126283 H         1 <1>         0.152500 
     35 H          -4.618917   -0.333457   -3.563985 H         1 <1>         0.145200 
     36 H          -6.920482   -0.577881   -2.743995 H         1 <1>         0.138400 
     37 H          -8.511477   -1.011130   -0.898089 H         1 <1>         0.139300 
     38 H          -7.657606   -1.446482    1.402897 H         1 <1>         0.140700 
     39 H          -5.240445   -1.449118    1.857554 H         1 <1>         0.160100 
     40 H           1.732301    4.472727    0.729356 H         1 <1>         0.202400 
     41 H           2.331639    6.792395    1.344941 H         1 <1>         0.164400 
@<TRIPOS>BOND
     1   24   39 1    
     2   26   27 1    
     3   23   38 1    
     4   24   23 ar   
     5   25   24 ar   
     6   23   22 ar   
     7   26   25 ar   
     8   17   26 ar   
     9   25   20 ar   
    10    2    1 3    
    11   30   41 1    
    12    3    2 1    
    13   30    3 ar   
    14   29   30 ar   
    15    4    3 ar   
    16   29   40 1    
    17   12   13 2    
    18   11   12 2    
    19   10   11 1    
    20    6   29 ar   
    21    4   31 1    
    22    5    4 ar   
    23   10    9 ar   
    24    8    9 ar   
    25   22   37 1    
    26   22   21 ar   
    27   14   10 ar   
    28    6    5 ar   
    29    7    6 1    
    30    5   32 1    
    31   15   14 ar   
    32    8    7 1    
    33   28    8 ar   
    34    7   33 1    
    35   15   28 ar   
    36   16   15 1    
    37   16   17 1    
    38   17   18 ar   
    39   20   21 ar   
    40   20   19 ar   
    41   21   36 1    
    42   18   19 ar   
    43   18   34 1    
    44   19   35 1    
@<TRIPOS>SUBSTRUCTURE
     1 ****       13 TEMP              0 ****  ****    0 ROOT 
