#	Name:			XYZ-2008-EJMC-1230-9E
#	Creating user name:	Administrator
#	Creation time:		Sun Jul 05 17:12:38 2020

#	Modifying user name:	Administrator
#	Modification time:	Sun Jul 05 17:12:51 2020

@<TRIPOS>MOLECULE
XYZ-2008-EJMC-1230-9E
   50    53     1     0     0
SMALL
MULLIKEN_CHARGES
INVALID_CHARGES
Gaussian 16 #p B3LYP/6-31G* opt
@<TRIPOS>ATOM
      1 C           5.025283   -0.138100    0.846667 C.3       1 <1>        -0.461600 
      2 C           3.812732   -0.155281   -0.087962 C.3       1 <1>         0.055500 
      3 C           4.214751   -0.281584   -1.564257 C.3       1 <1>        -0.438200 
      4 N           3.014127    1.050761    0.149115 N.3       1 <1>        -0.641500 
      5 C           1.680503    1.155092   -0.029245 C.ar      1 <1>         0.708400 
      6 N           1.137196    2.373642    0.171235 N.ar      1 <1>        -0.580000 
      7 C          -0.188997    2.418342   -0.000598 C.ar      1 <1>         0.723500 
      8 N          -0.738212    3.661018    0.201380 N.pl3     1 <1>        -0.778700 
      9 C          -2.052185    4.135126    0.145413 C.ar      1 <1>         0.379200 
     10 C          -2.233090    5.514297    0.371074 C.ar      1 <1>        -0.204600 
     11 C          -3.496685    6.081138    0.342302 C.ar      1 <1>        -0.140700 
     12 C          -4.623384    5.280554    0.085311 C.ar      1 <1>         0.132200 
     13 C          -5.931471    5.859974    0.052393 C.1       1 <1>         0.228400 
     14 N          -6.994276    6.334288    0.025569 N.1       1 <1>        -0.484000 
     15 C          -4.442891    3.905550   -0.137756 C.ar      1 <1>        -0.158700 
     16 C          -3.178003    3.331324   -0.109788 C.ar      1 <1>        -0.158700 
     17 N          -0.977331    1.385121   -0.344382 N.ar      1 <1>        -0.547400 
     18 C          -0.303727    0.247606   -0.504969 C.ar      1 <1>         0.687900 
     19 O          -0.997465   -0.863887   -0.859272 O.3       1 <1>        -0.533900 
     20 C          -2.374419   -0.794863   -1.005318 C.ar      1 <1>         0.329500 
     21 C          -2.886739   -0.695174   -2.317570 C.ar      1 <1>        -0.150200 
     22 C          -4.241840   -0.726736   -2.533679 C.ar      1 <1>        -0.200100 
     23 C          -5.146058   -0.859752   -1.447016 C.ar      1 <1>         0.152000 
     24 C          -6.549787   -0.893594   -1.660317 C.ar      1 <1>        -0.226300 
     25 C          -7.405825   -1.025334   -0.595085 C.ar      1 <1>         0.083900 
     26 BR         -9.292510   -1.071407   -0.886787 Br        1 <1>        -0.117600 
     27 C          -6.919028   -1.128371    0.727170 C.ar      1 <1>        -0.150100 
     28 C          -5.563373   -1.098472    0.958866 C.ar      1 <1>        -0.187200 
     29 C          -4.636114   -0.965452   -0.108922 C.ar      1 <1>         0.093000 
     30 C          -3.222647   -0.932630    0.073063 C.ar      1 <1>        -0.008000 
     31 BR         -2.465164   -1.071371    1.813137 Br        1 <1>        -0.095600 
     32 N           0.996223    0.042727   -0.378876 N.ar      1 <1>        -0.534900 
     33 H           5.677462    0.719471    0.633325 H         1 <1>         0.141000 
     34 H           5.621839   -1.045865    0.710957 H         1 <1>         0.159400 
     35 H           4.715519   -0.082485    1.895383 H         1 <1>         0.161200 
     36 H           3.168043   -1.000020    0.169638 H         1 <1>         0.181400 
     37 H           4.779260   -1.206310   -1.730602 H         1 <1>         0.147600 
     38 H           3.325159   -0.304743   -2.200716 H         1 <1>         0.168300 
     39 H           4.843831    0.562108   -1.873878 H         1 <1>         0.138200 
     40 H           3.488197    1.921846    0.348383 H         1 <1>         0.332100 
     41 H          -0.029898    4.344238    0.438996 H         1 <1>         0.346400 
     42 H          -1.368510    6.143459    0.569686 H         1 <1>         0.136900 
     43 H          -3.619664    7.144978    0.517515 H         1 <1>         0.158100 
     44 H          -5.307248    3.279001   -0.333719 H         1 <1>         0.162100 
     45 H          -3.049689    2.272803   -0.280940 H         1 <1>         0.199800 
     46 H          -2.181444   -0.600411   -3.136511 H         1 <1>         0.155700 
     47 H          -4.638431   -0.650571   -3.542045 H         1 <1>         0.149200 
     48 H          -6.934994   -0.814565   -2.671642 H         1 <1>         0.159200 
     49 H          -7.617582   -1.229455    1.550364 H         1 <1>         0.161600 
     50 H          -5.188364   -1.176424    1.972810 H         1 <1>         0.166900 
@<TRIPOS>BOND
     1   28   50 1    
     2   27   49 1    
     3   30   31 1    
     4    1   35 1    
     5   28   27 ar   
     6   29   28 ar   
     7   27   25 ar   
     8    1   34 1    
     9    1   33 1    
    10    2    1 1    
    11   11   43 1    
    12   10   42 1    
    13   30   29 ar   
    14   20   30 ar   
    15   10   11 ar   
    16   11   12 ar   
    17    8   41 1    
    18    9   10 ar   
    19   29   23 ar   
    20   13   14 3    
    21   12   13 1    
    22   15   12 ar   
    23    4   40 1    
    24    8    9 1    
    25    7    8 1    
    26    2   36 1    
    27    9   16 ar   
    28    7    6 ar   
    29    5    6 ar   
    30    5    4 1    
    31    4    2 1    
    32   16   15 ar   
    33   15   44 1    
    34   16   45 1    
    35   17    7 ar   
    36   25   26 1    
    37   25   24 ar   
    38   32    5 ar   
    39    2    3 1    
    40   18   17 ar   
    41   18   32 ar   
    42   19   18 1    
    43   19   20 1    
    44   20   21 ar   
    45   23   24 ar   
    46   23   22 ar   
    47   24   48 1    
    48    3   37 1    
    49    3   39 1    
    50    3   38 1    
    51   21   22 ar   
    52   21   46 1    
    53   22   47 1    
@<TRIPOS>SUBSTRUCTURE
     1 ****       40 TEMP              0 ****  ****    0 ROOT 
