#	Name:			XYZ-2008-EJMC-1230-9A
#	Creating user name:	Administrator
#	Creation time:		Sun Jul 05 17:12:37 2020

#	Modifying user name:	Administrator
#	Modification time:	Sun Jul 05 17:12:51 2020

@<TRIPOS>MOLECULE
XYZ-2008-EJMC-1230-9A
   44    47     1     0     0
SMALL
MULLIKEN_CHARGES
INVALID_CHARGES
Gaussian 16 #p B3LYP/6-31G* opt
@<TRIPOS>ATOM
      1 C          -0.128906    4.859846    0.531755 C.3       1 <1>        -0.292300 
      2 N          -0.803115    3.623398    0.183371 N.3       1 <1>        -0.623100 
      3 C          -0.181388    2.439594    0.003821 C.ar      1 <1>         0.696600 
      4 N           1.153658    2.392300    0.179398 N.ar      1 <1>        -0.564500 
      5 C           1.677062    1.177698   -0.019254 C.ar      1 <1>         0.717300 
      6 N           3.028233    0.968374    0.122886 N.pl3     1 <1>        -0.777600 
      7 C           4.087197    1.813145    0.459512 C.ar      1 <1>         0.381900 
      8 C           3.950568    3.184811    0.740077 C.ar      1 <1>        -0.159900 
      9 C           5.071402    3.938439    1.065146 C.ar      1 <1>        -0.155300 
     10 C           6.348527    3.356389    1.120190 C.ar      1 <1>         0.132300 
     11 C           7.494106    4.145195    1.456624 C.1       1 <1>         0.227600 
     12 N           8.425824    4.787159    1.730434 N.1       1 <1>        -0.484200 
     13 C           6.482942    1.985286    0.839205 C.ar      1 <1>        -0.140700 
     14 C           5.368865    1.229121    0.514573 C.ar      1 <1>        -0.203800 
     15 N           1.004005    0.063467   -0.361871 N.ar      1 <1>        -0.550700 
     16 C          -0.305705    0.260712   -0.502389 C.ar      1 <1>         0.674200 
     17 O          -0.980026   -0.852656   -0.860598 O.3       1 <1>        -0.537000 
     18 C          -2.372069   -0.824088   -0.972749 C.ar      1 <1>         0.355800 
     19 C          -3.171628   -0.709943    0.188429 C.ar      1 <1>        -0.134800 
     20 C          -4.538651   -0.791075    0.074007 C.ar      1 <1>        -0.210200 
     21 C          -5.162074   -0.992520   -1.188129 C.ar      1 <1>         0.146800 
     22 C          -6.571962   -1.081288   -1.332992 C.ar      1 <1>        -0.194100 
     23 C          -7.143397   -1.281187   -2.569794 C.ar      1 <1>        -0.134800 
     24 C          -6.327124   -1.402623   -3.720824 C.ar      1 <1>        -0.136200 
     25 C          -4.956612   -1.322559   -3.614334 C.ar      1 <1>        -0.189400 
     26 C          -4.336319   -1.115549   -2.353210 C.ar      1 <1>         0.127700 
     27 C          -2.925493   -1.026289   -2.211254 C.ar      1 <1>        -0.236300 
     28 N          -0.970407    1.397534   -0.340975 N.ar      1 <1>        -0.542600 
     29 H           0.400749    4.766039    1.485815 H         1 <1>         0.178100 
     30 H           0.596146    5.150994   -0.236656 H         1 <1>         0.176400 
     31 H          -0.880738    5.646605    0.622855 H         1 <1>         0.160700 
     32 H          -1.799224    3.614345    0.021110 H         1 <1>         0.347400 
     33 H           3.268977    0.001531   -0.058845 H         1 <1>         0.351800 
     34 H           2.970857    3.637495    0.698858 H         1 <1>         0.188900 
     35 H           4.959590    4.996465    1.280473 H         1 <1>         0.155800 
     36 H           7.462913    1.520782    0.877430 H         1 <1>         0.159300 
     37 H           5.484700    0.169540    0.299344 H         1 <1>         0.140700 
     38 H          -2.693556   -0.562508    1.150853 H         1 <1>         0.142000 
     39 H          -5.163676   -0.705721    0.959511 H         1 <1>         0.135600 
     40 H          -7.195225   -0.988983   -0.446489 H         1 <1>         0.130900 
     41 H          -8.223638   -1.347290   -2.667206 H         1 <1>         0.131600 
     42 H          -6.788454   -1.560681   -4.691828 H         1 <1>         0.132400 
     43 H          -4.328895   -1.416534   -4.497300 H         1 <1>         0.133000 
     44 H          -2.280306   -1.123782   -3.079309 H         1 <1>         0.143000 
@<TRIPOS>BOND
     1   20   39 1    
     2   19   38 1    
     3   19   20 ar   
     4   20   21 ar   
     5   22   40 1    
     6   18   19 ar   
     7   21   22 ar   
     8   22   23 ar   
     9   21   26 ar   
    10    1   29 1    
    11   17   18 1    
    12   18   27 ar   
    13   16   17 1    
    14    6   33 1    
    15   14   37 1    
    16   16   15 ar   
    17    5   15 ar   
    18   28   16 ar   
    19    5    6 1    
    20    6    7 1    
    21    7   14 ar   
    22   14   13 ar   
    23    4    5 ar   
    24   13   36 1    
    25    3   28 ar   
    26    7    8 ar   
    27   13   10 ar   
    28    3    4 ar   
    29    2    3 1    
    30    8   34 1    
    31    8    9 ar   
    32    9   10 ar   
    33   10   11 1    
    34    2   32 1    
    35    2    1 1    
    36    9   35 1    
    37   11   12 3    
    38   23   41 1    
    39   23   24 ar   
    40    1   31 1    
    41    1   30 1    
    42   26   27 ar   
    43   26   25 ar   
    44   27   44 1    
    45   24   25 ar   
    46   24   42 1    
    47   25   43 1    
@<TRIPOS>SUBSTRUCTURE
     1 ****       37 TEMP              0 ****  ****    0 ROOT 
