#	Name:			XYZ-2008-EJMC-1230-8C
#	Creating user name:	Administrator
#	Creation time:		Sun Jul 05 17:12:37 2020

#	Modifying user name:	Administrator
#	Modification time:	Sun Jul 05 17:12:51 2020

@<TRIPOS>MOLECULE
XYZ-2008-EJMC-1230-8C
   50    53     1     0     0
SMALL
MULLIKEN_CHARGES
INVALID_CHARGES
Gaussian 16 #p B3LYP/6-31G* opt
@<TRIPOS>ATOM
      1 C          -4.462610    3.891389    1.299902 C.3       1 <1>        -0.450700 
      2 C          -2.958899    3.627624    1.423487 C.3       1 <1>        -0.250700 
      3 C          -2.219972    3.876795    0.101182 C.3       1 <1>        -0.122700 
      4 N          -0.783459    3.637785    0.177146 N.3       1 <1>        -0.636800 
      5 C          -0.193814    2.435107    0.007160 C.ar      1 <1>         0.705800 
      6 N           1.146666    2.388275    0.185659 N.ar      1 <1>        -0.568900 
      7 C           1.675189    1.181983   -0.018767 C.ar      1 <1>         0.719500 
      8 N           3.026759    0.972891    0.124628 N.pl3     1 <1>        -0.778100 
      9 C           4.083020    1.818697    0.466127 C.ar      1 <1>         0.382300 
     10 C           3.942515    3.189439    0.750017 C.ar      1 <1>        -0.154700 
     11 C           5.060666    3.944985    1.079249 C.ar      1 <1>        -0.153300 
     12 C           6.339227    3.366048    1.135612 C.ar      1 <1>         0.131700 
     13 C           7.482063    4.156754    1.476443 C.1       1 <1>         0.227400 
     14 N           8.411859    4.800004    1.753893 N.1       1 <1>        -0.484400 
     15 C           6.477527    1.995980    0.851412 C.ar      1 <1>        -0.140500 
     16 C           5.366138    1.237852    0.522514 C.ar      1 <1>        -0.204500 
     17 N           1.006158    0.063591   -0.372144 N.ar      1 <1>        -0.553200 
     18 C          -0.301092    0.257314   -0.505981 C.ar      1 <1>         0.674400 
     19 O          -0.980615   -0.857056   -0.859423 O.3       1 <1>        -0.542600 
     20 C          -2.368950   -0.796716   -1.017630 C.ar      1 <1>         0.285900 
     21 C          -3.181213   -1.003171    0.069617 C.ar      1 <1>        -0.153900 
     22 C          -4.585488   -1.025360   -0.100817 C.ar      1 <1>        -0.151900 
     23 C          -5.139516   -0.846743   -1.347856 C.ar      1 <1>        -0.180400 
     24 C          -4.314413   -0.645694   -2.486940 C.ar      1 <1>         0.120600 
     25 C          -4.854581   -0.468179   -3.789350 C.ar      1 <1>        -0.196300 
     26 C          -4.032516   -0.283040   -4.877449 C.ar      1 <1>        -0.130500 
     27 C          -2.625590   -0.270377   -4.715126 C.ar      1 <1>        -0.136900 
     28 C          -2.064413   -0.437345   -3.469016 C.ar      1 <1>        -0.187800 
     29 C          -2.889449   -0.622752   -2.328465 C.ar      1 <1>         0.118900 
     30 N          -0.973474    1.390532   -0.333889 N.ar      1 <1>        -0.536100 
     31 H          -4.665165    4.928041    1.003015 H         1 <1>         0.142600 
     32 H          -4.918157    3.234113    0.549860 H         1 <1>         0.155400 
     33 H          -4.973174    3.713862    2.252393 H         1 <1>         0.150300 
     34 H          -2.527137    4.265674    2.206563 H         1 <1>         0.131200 
     35 H          -2.783320    2.588603    1.726035 H         1 <1>         0.157900 
     36 H          -2.622689    3.225408   -0.678560 H         1 <1>         0.188800 
     37 H          -2.362143    4.913941   -0.225041 H         1 <1>         0.144400 
     38 H          -0.171124    4.374590    0.497699 H         1 <1>         0.336500 
     39 H           3.269223    0.007357   -0.060807 H         1 <1>         0.351300 
     40 H           2.961657    3.639491    0.707841 H         1 <1>         0.178400 
     41 H           4.945623    5.002255    1.296949 H         1 <1>         0.156100 
     42 H           7.458635    1.533857    0.890555 H         1 <1>         0.158900 
     43 H           5.485087    0.179072    0.304754 H         1 <1>         0.140300 
     44 H          -2.735802   -1.147034    1.048615 H         1 <1>         0.140900 
     45 H          -5.222384   -1.187010    0.764123 H         1 <1>         0.135900 
     46 H          -6.218472   -0.864390   -1.479522 H         1 <1>         0.131100 
     47 H          -5.935032   -0.484249   -3.911156 H         1 <1>         0.132200 
     48 H          -4.460568   -0.149867   -5.867281 H         1 <1>         0.132800 
     49 H          -1.986192   -0.130812   -5.582378 H         1 <1>         0.133800 
     50 H          -0.986782   -0.440961   -3.345128 H         1 <1>         0.149400 
@<TRIPOS>BOND
     1   21   44 1    
     2   22   45 1    
     3   21   22 ar   
     4   20   21 ar   
     5   22   23 ar   
     6   16   43 1    
     7   19   20 1    
     8   18   19 1    
     9    8   39 1    
    10   20   29 ar   
    11    2   35 1    
    12   23   46 1    
    13   24   23 ar   
    14   18   17 ar   
    15    7   17 ar   
    16    1   33 1    
    17   15   42 1    
    18   30   18 ar   
    19   16   15 ar   
    20    9   16 ar   
    21    7    8 1    
    22    8    9 1    
    23    6    7 ar   
    24   15   12 ar   
    25    9   10 ar   
    26    2   34 1    
    27    5   30 ar   
    28    2    1 1    
    29    3    2 1    
    30   29   24 ar   
    31   29   28 ar   
    32    1   32 1    
    33    1   31 1    
    34   24   25 ar   
    35    5    6 ar   
    36   12   13 1    
    37   11   12 ar   
    38    4    5 1    
    39   10   11 ar   
    40   10   40 1    
    41   13   14 3    
    42   11   41 1    
    43    4    3 1    
    44    4   38 1    
    45   28   50 1    
    46   28   27 ar   
    47    3   36 1    
    48    3   37 1    
    49   25   47 1    
    50   25   26 ar   
    51   27   26 ar   
    52   27   49 1    
    53   26   48 1    
@<TRIPOS>SUBSTRUCTURE
     1 ****       39 TEMP              0 ****  ****    0 ROOT 
