#	Name:			XYZ-2008-EJMC-1230-9G
#	Creating user name:	Administrator
#	Creation time:		Sun Jul 05 17:12:38 2020

#	Modifying user name:	Administrator
#	Modification time:	Sun Jul 05 17:12:51 2020

@<TRIPOS>MOLECULE
XYZ-2008-EJMC-1230-9G
   44    47     1     0     0
SMALL
MULLIKEN_CHARGES
INVALID_CHARGES
Gaussian 16 #p B3LYP/6-31G* opt
@<TRIPOS>ATOM
      1 C          -0.128366    4.860333    0.530944 C.3       1 <1>        -0.292900 
      2 N          -0.803038    3.623571    0.183325 N.3       1 <1>        -0.622900 
      3 C          -0.181469    2.440024    0.003876 C.ar      1 <1>         0.697400 
      4 N           1.153412    2.392084    0.178970 N.ar      1 <1>        -0.563700 
      5 C           1.677557    1.177826   -0.019255 C.ar      1 <1>         0.717900 
      6 N           3.027949    0.968431    0.122821 N.pl3     1 <1>        -0.777400 
      7 C           4.087347    1.813715    0.459390 C.ar      1 <1>         0.381500 
      8 C           5.368422    1.228987    0.515476 C.ar      1 <1>        -0.203700 
      9 C           6.482759    1.984975    0.840017 C.ar      1 <1>        -0.140600 
     10 C           6.348642    3.356237    1.119794 C.ar      1 <1>         0.132600 
     11 C           7.494379    4.144898    1.456226 C.1       1 <1>         0.228000 
     12 N           8.426185    4.786791    1.729967 N.1       1 <1>        -0.483300 
     13 C           5.071992    3.938909    1.063730 C.ar      1 <1>        -0.155200 
     14 C           3.950879    3.185438    0.738776 C.ar      1 <1>        -0.159700 
     15 N           1.003642    0.063026   -0.361595 N.ar      1 <1>        -0.550300 
     16 C          -0.304775    0.261376   -0.501609 C.ar      1 <1>         0.674200 
     17 O          -0.980390   -0.853022   -0.861481 O.3       1 <1>        -0.536900 
     18 C          -2.370426   -0.827046   -0.967942 C.ar      1 <1>         0.358500 
     19 C          -3.168687   -0.684120    0.191455 C.ar      1 <1>        -0.133600 
     20 C          -4.536066   -0.767721    0.084639 C.ar      1 <1>        -0.206500 
     21 C          -5.160865   -1.000777   -1.171444 C.ar      1 <1>         0.145500 
     22 C          -6.571812   -1.090669   -1.302874 C.ar      1 <1>        -0.221200 
     23 C          -7.130432   -1.320761   -2.536961 C.ar      1 <1>         0.078800 
     24 BR         -9.031880   -1.439654   -2.713269 Br        1 <1>        -0.129900 
     25 C          -6.333562   -1.474444   -3.694657 C.ar      1 <1>        -0.152800 
     26 C          -4.964141   -1.392026   -3.586572 C.ar      1 <1>        -0.190600 
     27 C          -4.338100   -1.153605   -2.333991 C.ar      1 <1>         0.135900 
     28 C          -2.927781   -1.060992   -2.199668 C.ar      1 <1>        -0.237100 
     29 N          -0.970571    1.397106   -0.340664 N.ar      1 <1>        -0.544200 
     30 H           0.403037    4.765784    1.483865 H         1 <1>         0.178800 
     31 H          -0.880392    5.646681    0.623886 H         1 <1>         0.161700 
     32 H           0.594941    5.151894   -0.238948 H         1 <1>         0.177100 
     33 H          -1.799001    3.615276    0.020499 H         1 <1>         0.347600 
     34 H           3.269038    0.001638   -0.058237 H         1 <1>         0.352200 
     35 H           5.483997    0.169151    0.301113 H         1 <1>         0.141200 
     36 H           7.462502    1.520124    0.879018 H         1 <1>         0.159900 
     37 H           4.960433    4.997157    1.278222 H         1 <1>         0.156400 
     38 H           2.971493    3.638692    0.696835 H         1 <1>         0.188800 
     39 H          -2.689133   -0.512437    1.148867 H         1 <1>         0.146600 
     40 H          -5.158789   -0.660393    0.968982 H         1 <1>         0.141400 
     41 H          -7.200661   -0.976905   -0.425713 H         1 <1>         0.153700 
     42 H          -6.807929   -1.655749   -4.652767 H         1 <1>         0.155800 
     43 H          -4.344053   -1.509726   -4.471609 H         1 <1>         0.143700 
     44 H          -2.285253   -1.180070   -3.066671 H         1 <1>         0.147000 
@<TRIPOS>BOND
     1   20   40 1    
     2   19   39 1    
     3   19   20 ar   
     4   20   21 ar   
     5   22   41 1    
     6   18   19 ar   
     7   21   22 ar   
     8   22   23 ar   
     9   21   27 ar   
    10    1   30 1    
    11   17   18 1    
    12   18   28 ar   
    13   16   17 1    
    14   16   15 ar   
    15    5   15 ar   
    16    6   34 1    
    17    8   35 1    
    18   29   16 ar   
    19    5    6 1    
    20    6    7 1    
    21    4    5 ar   
    22    7    8 ar   
    23    8    9 ar   
    24    3   29 ar   
    25    9   36 1    
    26    7   14 ar   
    27    9   10 ar   
    28    3    4 ar   
    29    2    3 1    
    30   23   24 1    
    31   14   38 1    
    32   14   13 ar   
    33   13   10 ar   
    34   10   11 1    
    35    2   33 1    
    36    2    1 1    
    37   13   37 1    
    38   23   25 ar   
    39   11   12 3    
    40    1   31 1    
    41    1   32 1    
    42   27   28 ar   
    43   27   26 ar   
    44   28   44 1    
    45   25   26 ar   
    46   25   42 1    
    47   26   43 1    
@<TRIPOS>SUBSTRUCTURE
     1 ****       35 TEMP              0 ****  ****    0 ROOT 
