#	Name:			XYZ-2008-EJMC-1230-9F
#	Creating user name:	Administrator
#	Creation time:		Sun Jul 05 17:12:38 2020

#	Modifying user name:	Administrator
#	Modification time:	Sun Jul 05 17:12:51 2020

@<TRIPOS>MOLECULE
XYZ-2008-EJMC-1230-9F
   50    53     1     0     0
SMALL
MULLIKEN_CHARGES
INVALID_CHARGES
Gaussian 16 #p B3LYP/6-31G* opt
@<TRIPOS>ATOM
      1 C           0.422092    4.922173    1.928443 C.3       1 <1>        -0.443700 
      2 C          -0.216685    4.925953    0.532241 C.3       1 <1>         0.056600 
      3 C           0.738811    5.445733   -0.551709 C.3       1 <1>        -0.444000 
      4 N          -0.796958    3.618949    0.183443 N.3       1 <1>        -0.644400 
      5 C          -0.161606    2.440564    0.006447 C.ar      1 <1>         0.707800 
      6 N           1.167629    2.361624    0.174003 N.ar      1 <1>        -0.573600 
      7 C           1.677282    1.132684   -0.029537 C.ar      1 <1>         0.722900 
      8 N           3.037136    1.062515    0.149952 N.pl3     1 <1>        -0.778200 
      9 C           3.947824    0.007351    0.037233 C.ar      1 <1>         0.379800 
     10 C           5.296935    0.309771    0.308977 C.ar      1 <1>        -0.205700 
     11 C           6.276495   -0.665953    0.224878 C.ar      1 <1>        -0.140600 
     12 C           5.932919   -1.980579   -0.135577 C.ar      1 <1>         0.132100 
     13 C           6.939431   -2.994265   -0.223676 C.1       1 <1>         0.228100 
     14 N           7.760024   -3.816935   -0.294050 N.1       1 <1>        -0.484800 
     15 C           4.587882   -2.281249   -0.406967 C.ar      1 <1>        -0.154800 
     16 C           3.600532   -1.307116   -0.324430 C.ar      1 <1>        -0.159700 
     17 N           0.992301    0.037552   -0.375294 N.ar      1 <1>        -0.543800 
     18 C          -0.316520    0.264194   -0.510367 C.ar      1 <1>         0.692000 
     19 O          -1.011501   -0.846578   -0.857171 O.3       1 <1>        -0.535800 
     20 C          -2.379985   -0.751854   -1.073275 C.ar      1 <1>         0.329700 
     21 C          -3.233811   -1.187720   -0.037183 C.ar      1 <1>        -0.150100 
     22 C          -4.592440   -1.210539   -0.231194 C.ar      1 <1>        -0.204400 
     23 C          -5.158577   -0.799483   -1.466392 C.ar      1 <1>         0.154100 
     24 C          -6.562590   -0.817339   -1.681045 C.ar      1 <1>        -0.197200 
     25 C          -7.102538   -0.419791   -2.881990 C.ar      1 <1>        -0.130600 
     26 C          -6.253424    0.015257   -3.926646 C.ar      1 <1>        -0.133800 
     27 C          -4.887663    0.045692   -3.756037 C.ar      1 <1>        -0.187600 
     28 C          -4.297743   -0.358058   -2.528437 C.ar      1 <1>         0.086700 
     29 C          -2.892252   -0.352755   -2.288666 C.ar      1 <1>        -0.000900 
     30 BR         -1.677970    0.209470   -3.644666 Br        1 <1>        -0.104400 
     31 N          -0.965448    1.398918   -0.337088 N.ar      1 <1>        -0.544100 
     32 H           1.290285    4.259434    1.954879 H         1 <1>         0.173000 
     33 H          -0.296306    4.584687    2.682995 H         1 <1>         0.147900 
     34 H           0.747095    5.934933    2.192253 H         1 <1>         0.143900 
     35 H          -1.084130    5.595717    0.563546 H         1 <1>         0.137600 
     36 H           1.066113    6.461970   -0.304483 H         1 <1>         0.143800 
     37 H           1.620630    4.805104   -0.629435 H         1 <1>         0.173200 
     38 H           0.241706    5.473065   -1.527174 H         1 <1>         0.149300 
     39 H          -1.791284    3.565563    0.011547 H         1 <1>         0.344100 
     40 H           3.427104    1.959553    0.409619 H         1 <1>         0.344800 
     41 H           5.573942    1.323517    0.588945 H         1 <1>         0.135600 
     42 H           7.311393   -0.417890    0.437360 H         1 <1>         0.157400 
     43 H           4.314403   -3.293638   -0.686988 H         1 <1>         0.160500 
     44 H           2.568074   -1.545853   -0.535236 H         1 <1>         0.202700 
     45 H          -2.784359   -1.504573    0.898221 H         1 <1>         0.151400 
     46 H          -5.252939   -1.546873    0.563304 H         1 <1>         0.141800 
     47 H          -7.204851   -1.154492   -0.871033 H         1 <1>         0.135700 
     48 H          -8.178300   -0.439048   -3.031590 H         1 <1>         0.135900 
     49 H          -6.683358    0.328368   -4.874010 H         1 <1>         0.137200 
     50 H          -4.241889    0.379866   -4.559983 H         1 <1>         0.156500 
@<TRIPOS>BOND
     1   22   46 1    
     2   21   45 1    
     3   24   47 1    
     4   21   22 ar   
     5   22   23 ar   
     6   20   21 ar   
     7    1   33 1    
     8   23   24 ar   
     9   24   25 ar   
    10   23   28 ar   
    11    1   32 1    
    12    1   34 1    
    13    2    1 1    
    14   19   20 1    
    15   20   29 ar   
    16   18   19 1    
    17   18   31 ar   
    18   17   18 ar   
    19   25   48 1    
    20    5   31 ar   
    21    7   17 ar   
    22   16   44 1    
    23   15   43 1    
    24   25   26 ar   
    25    4   39 1    
    26    5    4 1    
    27    6    5 ar   
    28   16   15 ar   
    29    9   16 ar   
    30   15   12 ar   
    31    7    6 ar   
    32    8    7 1    
    33    4    2 1    
    34    9    8 1    
    35    9   10 ar   
    36   12   13 1    
    37   12   11 ar   
    38   13   14 3    
    39    8   40 1    
    40    2   35 1    
    41   28   29 ar   
    42   28   27 ar   
    43    2    3 1    
    44   10   11 ar   
    45   10   41 1    
    46   11   42 1    
    47   29   30 1    
    48   26   27 ar   
    49   26   49 1    
    50   27   50 1    
    51    3   37 1    
    52    3   36 1    
    53    3   38 1    
@<TRIPOS>SUBSTRUCTURE
     1 ****       44 TEMP              0 ****  ****    0 ROOT 
