#	Name:			XYZ-2009-CB-561-8A
#	Creating user name:	Administrator
#	Creation time:		Sun Jul 05 17:12:40 2020

#	Modifying user name:	Administrator
#	Modification time:	Sun Jul 05 17:12:51 2020

@<TRIPOS>MOLECULE
XYZ-2009-CB-561-8A
   44    47     1     0     0
SMALL
MULLIKEN_CHARGES
INVALID_CHARGES
Gaussian 16 #p B3LYP/6-31G* opt
@<TRIPOS>ATOM
      1 C           3.806179   -0.146893   -0.025637 C.3       1 <1>        -0.312000 
      2 N           3.016162    1.058351    0.141437 N.3       1 <1>        -0.624600 
      3 C           1.678990    1.151429   -0.025127 C.ar      1 <1>         0.700700 
      4 N           1.139357    2.372837    0.174505 N.ar      1 <1>        -0.576300 
      5 C          -0.184750    2.417219   -0.001241 C.ar      1 <1>         0.725000 
      6 N          -0.739548    3.658478    0.199517 N.pl3     1 <1>        -0.783700 
      7 C          -2.053448    4.107617    0.111021 C.ar      1 <1>         0.320000 
      8 C          -3.179299    3.340278   -0.233050 C.ar      1 <1>        -0.166400 
      9 C          -4.439381    3.928285   -0.281235 C.ar      1 <1>        -0.155000 
     10 C          -4.618109    5.289857    0.010058 C.ar      1 <1>         0.133200 
     11 C          -5.919863    5.882113   -0.040919 C.1       1 <1>         0.231000 
     12 N          -6.979471    6.362017   -0.081641 N.1       1 <1>        -0.480700 
     13 C          -3.500833    6.072254    0.355497 C.ar      1 <1>        -0.215300 
     14 C          -2.262737    5.470917    0.396810 C.ar      1 <1>         0.313900 
     15 F          -1.173696    6.210901    0.727985 F         1 <1>        -0.300100 
     16 N          -0.976163    1.387731   -0.344392 N.ar      1 <1>        -0.552600 
     17 C          -0.308064    0.244080   -0.507152 C.ar      1 <1>         0.678100 
     18 O          -0.997686   -0.860635   -0.863645 O.3       1 <1>        -0.536600 
     19 C          -2.389389   -0.803681   -0.978083 C.ar      1 <1>         0.353200 
     20 C          -3.183432   -0.786295    0.192347 C.ar      1 <1>        -0.144300 
     21 C          -4.553036   -0.824201    0.076614 C.ar      1 <1>        -0.210400 
     22 C          -5.182829   -0.887763   -1.196995 C.ar      1 <1>         0.143200 
     23 C          -6.595000   -0.926490   -1.343851 C.ar      1 <1>        -0.194800 
     24 C          -7.172903   -0.990587   -2.591945 C.ar      1 <1>        -0.133900 
     25 C          -6.361627   -1.020571   -3.752582 C.ar      1 <1>        -0.135300 
     26 C          -4.989296   -0.985719   -3.644976 C.ar      1 <1>        -0.188800 
     27 C          -4.362087   -0.917315   -2.372042 C.ar      1 <1>         0.126600 
     28 C          -2.949157   -0.873652   -2.228334 C.ar      1 <1>        -0.233100 
     29 N           0.994018    0.040931   -0.369512 N.ar      1 <1>        -0.535400 
     30 H           4.544801   -0.023579   -0.826930 H         1 <1>         0.161800 
     31 H           4.332766   -0.399688    0.902270 H         1 <1>         0.161600 
     32 H           3.132075   -0.962260   -0.286147 H         1 <1>         0.215700 
     33 H           3.471318    1.923787    0.395749 H         1 <1>         0.339300 
     34 H          -0.055427    4.359330    0.455204 H         1 <1>         0.357100 
     35 H          -3.050190    2.291759   -0.458593 H         1 <1>         0.213100 
     36 H          -5.298128    3.322090   -0.549352 H         1 <1>         0.165100 
     37 H          -3.593765    7.126966    0.587219 H         1 <1>         0.172300 
     38 H          -2.698898   -0.744953    1.162179 H         1 <1>         0.144600 
     39 H          -5.174011   -0.811008    0.968873 H         1 <1>         0.140100 
     40 H          -7.214472   -0.904661   -0.450277 H         1 <1>         0.134400 
     41 H          -8.254409   -1.018384   -2.691156 H         1 <1>         0.135300 
     42 H          -6.828526   -1.071040   -4.732470 H         1 <1>         0.135000 
     43 H          -4.365756   -1.008362   -4.535395 H         1 <1>         0.134600 
     44 H          -2.308562   -0.898735   -3.104875 H         1 <1>         0.144400 
@<TRIPOS>BOND
     1   26   43 1    
     2   25   42 1    
     3   28   44 1    
     4   26   25 ar   
     5   27   26 ar   
     6   25   24 ar   
     7    1   30 1    
     8   28   27 ar   
     9   19   28 ar   
    10   27   22 ar   
    11    2   33 1    
    12   14   15 1    
    13    6   34 1    
    14   13   37 1    
    15   24   41 1    
    16   24   23 ar   
    17    2    1 1    
    18    3    2 1    
    19   14   13 ar   
    20    7   14 ar   
    21    3    4 ar   
    22    5    4 ar   
    23    1   32 1    
    24    1   31 1    
    25    6    7 1    
    26    5    6 1    
    27   13   10 ar   
    28   29    3 ar   
    29    7    8 ar   
    30   16    5 ar   
    31   10   11 1    
    32    9   10 ar   
    33   17   29 ar   
    34   11   12 3    
    35    8    9 ar   
    36    8   35 1    
    37   17   16 ar   
    38    9   36 1    
    39   18   17 1    
    40   18   19 1    
    41   19   20 ar   
    42   22   23 ar   
    43   22   21 ar   
    44   23   40 1    
    45   20   21 ar   
    46   20   38 1    
    47   21   39 1    
@<TRIPOS>SUBSTRUCTURE
     1 ****       34 TEMP              0 ****  ****    0 ROOT 
