#	Name:			XYZ-2009-CB-561-8C
#	Creating user name:	Administrator
#	Creation time:		Sun Jul 05 17:12:40 2020

#	Modifying user name:	Administrator
#	Modification time:	Sun Jul 05 17:12:51 2020

@<TRIPOS>MOLECULE
XYZ-2009-CB-561-8C
   47    50     1     0     0
SMALL
MULLIKEN_CHARGES
INVALID_CHARGES
Gaussian 16 #p B3LYP/6-31G* opt
@<TRIPOS>ATOM
      1 C          -0.062619    4.983821    2.147881 C.3       1 <1>        -0.441100 
      2 C          -0.126652    4.849344    0.623357 C.3       1 <1>        -0.125600 
      3 N          -0.779924    3.626093    0.174767 N.3       1 <1>        -0.628300 
      4 C          -0.165334    2.434633    0.011251 C.ar      1 <1>         0.701500 
      5 N           1.162927    2.361316    0.186028 N.ar      1 <1>        -0.577400 
      6 C           1.673560    1.136957   -0.029356 C.ar      1 <1>         0.725700 
      7 N           3.034797    1.066247    0.142036 N.pl3     1 <1>        -0.782300 
      8 C           3.923513    0.002863    0.019245 C.ar      1 <1>         0.321300 
      9 C           3.600996   -1.320148   -0.327435 C.ar      1 <1>        -0.163500 
     10 C           4.600705   -2.284262   -0.412061 C.ar      1 <1>        -0.150400 
     11 C           5.943306   -1.964234   -0.156067 C.ar      1 <1>         0.133600 
     12 C           6.962240   -2.965046   -0.246433 C.1       1 <1>         0.231100 
     13 N           7.790280   -3.779680   -0.320078 N.1       1 <1>        -0.479900 
     14 C           6.282357   -0.643912    0.192313 C.ar      1 <1>        -0.215100 
     15 C           5.278137    0.294928    0.270530 C.ar      1 <1>         0.313000 
     16 F           5.586420    1.574054    0.605517 F         1 <1>        -0.300300 
     17 N           0.992446    0.039602   -0.374808 N.ar      1 <1>        -0.546500 
     18 C          -0.321728    0.257910   -0.506154 C.ar      1 <1>         0.677400 
     19 O          -1.004967   -0.849495   -0.862879 O.3       1 <1>        -0.537500 
     20 C          -2.397596   -0.805940   -0.977104 C.ar      1 <1>         0.355400 
     21 C          -3.195702   -0.705762    0.185930 C.ar      1 <1>        -0.135300 
     22 C          -4.563557   -0.770566    0.069439 C.ar      1 <1>        -0.210000 
     23 C          -5.188176   -0.941066   -1.196668 C.ar      1 <1>         0.147100 
     24 C          -6.598824   -1.012490   -1.343681 C.ar      1 <1>        -0.194000 
     25 C          -7.171449   -1.182330   -2.584390 C.ar      1 <1>        -0.134600 
     26 C          -6.355867   -1.289913   -3.737265 C.ar      1 <1>        -0.136100 
     27 C          -4.984603   -1.226055   -3.628921 C.ar      1 <1>        -0.189200 
     28 C          -4.363110   -1.050023   -2.363714 C.ar      1 <1>         0.127400 
     29 C          -2.951517   -0.978480   -2.219644 C.ar      1 <1>        -0.234900 
     30 N          -0.969460    1.397160   -0.336496 N.ar      1 <1>        -0.541300 
     31 H          -1.065327    4.975808    2.590121 H         1 <1>         0.146300 
     32 H           0.511940    4.158623    2.579831 H         1 <1>         0.168000 
     33 H           0.424395    5.925479    2.426253 H         1 <1>         0.150100 
     34 H          -0.675646    5.690472    0.186031 H         1 <1>         0.150700 
     35 H           0.880917    4.857378    0.201258 H         1 <1>         0.182200 
     36 H          -1.786587    3.597332    0.088997 H         1 <1>         0.341400 
     37 H           3.447683    1.953002    0.401423 H         1 <1>         0.356500 
     38 H           2.568200   -1.569480   -0.525184 H         1 <1>         0.207500 
     39 H           4.337841   -3.301920   -0.680739 H         1 <1>         0.162900 
     40 H           7.306362   -0.354214    0.397903 H         1 <1>         0.172500 
     41 H          -2.716315   -0.582024    1.151011 H         1 <1>         0.141900 
     42 H          -5.188287   -0.695998    0.956144 H         1 <1>         0.136000 
     43 H          -7.221646   -0.931050   -0.455854 H         1 <1>         0.131200 
     44 H          -8.252110   -1.235543   -2.683463 H         1 <1>         0.132100 
     45 H          -6.818276   -1.424302   -4.711373 H         1 <1>         0.133000 
     46 H          -4.357356   -1.309332   -4.513264 H         1 <1>         0.133700 
     47 H          -2.306889   -1.065697   -3.089192 H         1 <1>         0.143600 
@<TRIPOS>BOND
     1   27   46 1    
     2   26   45 1    
     3   29   47 1    
     4   27   26 ar   
     5   28   27 ar   
     6   26   25 ar   
     7    2   34 1    
     8    2   35 1    
     9    3    2 1    
    10    2    1 1    
    11   29   28 ar   
    12   20   29 ar   
    13   28   23 ar   
    14    3   36 1    
    15    4    3 1    
    16   15   16 1    
    17    7   37 1    
    18    4    5 ar   
    19    6    5 ar   
    20   30    4 ar   
    21    6    7 1    
    22    7    8 1    
    23   15   14 ar   
    24    8   15 ar   
    25   14   40 1    
    26   17    6 ar   
    27   25   44 1    
    28   25   24 ar   
    29   14   11 ar   
    30    8    9 ar   
    31   18   30 ar   
    32   18   17 ar   
    33   19   18 1    
    34   11   12 1    
    35   10   11 ar   
    36    9   38 1    
    37    9   10 ar   
    38   12   13 3    
    39   10   39 1    
    40   19   20 1    
    41   20   21 ar   
    42    1   33 1    
    43   23   24 ar   
    44   23   22 ar   
    45    1   31 1    
    46    1   32 1    
    47   24   43 1    
    48   21   22 ar   
    49   21   41 1    
    50   22   42 1    
@<TRIPOS>SUBSTRUCTURE
     1 ****       16 TEMP              0 ****  ****    0 ROOT 
