#	Name:			XYZ-2008-EJMC-1230-9Q
#	Creating user name:	Administrator
#	Creation time:		Sun Jul 05 17:12:38 2020

#	Modifying user name:	Administrator
#	Modification time:	Sun Jul 05 17:12:51 2020

@<TRIPOS>MOLECULE
XYZ-2008-EJMC-1230-9Q
   41    44     1     0     0
SMALL
MULLIKEN_CHARGES
INVALID_CHARGES
Gaussian 16 #p B3LYP/6-31G* opt
@<TRIPOS>ATOM
      1 N           0.812779    9.993750    1.894788 N.1       1 <1>        -0.482400 
      2 C           0.545053    8.898956    1.603474 C.1       1 <1>         0.228600 
      3 C           0.215853    7.553185    1.244933 C.ar      1 <1>         0.132700 
      4 C          -1.116028    7.191796    0.976181 C.ar      1 <1>        -0.140100 
      5 C          -1.426092    5.887131    0.629373 C.ar      1 <1>        -0.204700 
      6 C          -0.421170    4.903438    0.539595 C.ar      1 <1>         0.381200 
      7 N          -0.834245    3.617356    0.181744 N.pl3     1 <1>        -0.778300 
      8 C          -0.152327    2.438706    0.007207 C.ar      1 <1>         0.720400 
      9 N           1.167945    2.379576    0.177188 N.ar      1 <1>        -0.551500 
     10 C           1.686611    1.148703   -0.028257 C.ar      1 <1>         0.674900 
     11 N           3.018754    1.010306    0.141699 N.3       1 <1>        -0.772800 
     12 N           1.000314    0.047405   -0.378332 N.ar      1 <1>        -0.519600 
     13 C          -0.305361    0.263176   -0.510249 C.ar      1 <1>         0.671900 
     14 O          -1.003196   -0.843107   -0.847813 O.3       1 <1>        -0.535000 
     15 C          -2.372236   -0.758207   -1.102083 C.ar      1 <1>         0.357200 
     16 C          -2.835686   -0.102065   -2.266639 C.ar      1 <1>        -0.135800 
     17 C          -4.177950   -0.116143   -2.560673 C.ar      1 <1>        -0.206600 
     18 C          -5.106728   -0.784165   -1.715973 C.ar      1 <1>         0.145500 
     19 C          -6.497233   -0.810560   -2.002181 C.ar      1 <1>        -0.221200 
     20 C          -7.356757   -1.471968   -1.158547 C.ar      1 <1>         0.078900 
     21 BR         -9.230143   -1.505296   -1.543916 Br        1 <1>        -0.128600 
     22 C          -6.893170   -2.137062   -0.000186 C.ar      1 <1>        -0.152600 
     23 C          -5.548682   -2.123669    0.292848 C.ar      1 <1>        -0.190400 
     24 C          -4.619715   -1.452450   -0.546238 C.ar      1 <1>         0.135400 
     25 C          -3.229111   -1.422480   -0.261519 C.ar      1 <1>        -0.235900 
     26 N          -0.956179    1.408301   -0.338799 N.ar      1 <1>        -0.556300 
     27 C           0.911766    5.262255    0.808292 C.ar      1 <1>        -0.154200 
     28 C           1.217079    6.572423    1.155800 C.ar      1 <1>        -0.152800 
     29 H          -1.900798    7.938317    1.041344 H         1 <1>         0.160600 
     30 H          -2.459732    5.618676    0.423871 H         1 <1>         0.141100 
     31 H          -1.826784    3.496810    0.021152 H         1 <1>         0.351900 
     32 H           3.585826    1.820698    0.332901 H         1 <1>         0.351700 
     33 H           3.448921    0.123152   -0.067497 H         1 <1>         0.357200 
     34 H          -2.123553    0.400263   -2.912300 H         1 <1>         0.146800 
     35 H          -4.545056    0.383514   -3.453337 H         1 <1>         0.142300 
     36 H          -6.872398   -0.307208   -2.887402 H         1 <1>         0.154200 
     37 H          -7.599546   -2.649882    0.643177 H         1 <1>         0.156300 
     38 H          -5.184018   -2.633120    1.181093 H         1 <1>         0.144300 
     39 H          -2.837971   -1.927857    0.616195 H         1 <1>         0.147900 
     40 H           1.685512    4.511680    0.741831 H         1 <1>         0.180100 
     41 H           2.247555    6.843809    1.362502 H         1 <1>         0.157900 
@<TRIPOS>BOND
     1   17   35 1    
     2   16   34 1    
     3   19   36 1    
     4   16   17 ar   
     5   17   18 ar   
     6   15   16 ar   
     7   18   19 ar   
     8   19   20 ar   
     9   18   24 ar   
    10   14   15 1    
    11   15   25 ar   
    12   13   14 1    
    13    7   31 1    
    14    5   30 1    
    15   26   13 ar   
    16    8   26 ar   
    17   13   12 ar   
    18    7    8 1    
    19    6    7 1    
    20   20   21 1    
    21    5    6 ar   
    22    5    4 ar   
    23    8    9 ar   
    24    4   29 1    
    25    6   27 ar   
    26   12   10 ar   
    27    4    3 ar   
    28    9   10 ar   
    29   10   11 1    
    30   27   40 1    
    31   27   28 ar   
    32    3   28 ar   
    33    3    2 1    
    34   11   33 1    
    35   28   41 1    
    36   11   32 1    
    37    2    1 3    
    38   20   22 ar   
    39   24   25 ar   
    40   24   23 ar   
    41   25   39 1    
    42   22   23 ar   
    43   22   37 1    
    44   23   38 1    
@<TRIPOS>SUBSTRUCTURE
     1 ****       30 TEMP              0 ****  ****    0 ROOT 
