#	Name:			XYZ-2009-APC-145-7D
#	Creating user name:	Administrator
#	Creation time:		Sun Jul 05 17:12:39 2020

#	Modifying user name:	Administrator
#	Modification time:	Sun Jul 05 17:12:51 2020

@<TRIPOS>MOLECULE
XYZ-2009-APC-145-7D
   48    51     1     0     0
SMALL
MULLIKEN_CHARGES
INVALID_CHARGES
Gaussian 16 #p B3LYP/6-31G* opt
@<TRIPOS>ATOM
      1 C          -3.290271    5.791245    1.338723 C.2       1 <1>        -0.337900 
      2 C          -2.719908    4.587046    1.303998 C.2       1 <1>        -0.053400 
      3 C          -2.170914    3.946893    0.056027 C.3       1 <1>        -0.179500 
      4 N          -0.751655    3.638651    0.193347 N.3       1 <1>        -0.636500 
      5 C          -0.178544    2.429100    0.001964 C.ar      1 <1>         0.707600 
      6 N           1.153424    2.361098    0.174107 N.ar      1 <1>        -0.580300 
      7 C           1.671838    1.139807   -0.028842 C.ar      1 <1>         0.724600 
      8 N           3.031646    1.076491    0.150220 N.pl3     1 <1>        -0.776900 
      9 C           3.949066    0.026943    0.038994 C.ar      1 <1>         0.379800 
     10 C           5.295330    0.337483    0.315432 C.ar      1 <1>        -0.205600 
     11 C           6.281371   -0.631944    0.233234 C.ar      1 <1>        -0.140600 
     12 C           5.947363   -1.948222   -0.130112 C.ar      1 <1>         0.132100 
     13 C           6.960458   -2.955332   -0.216007 C.1       1 <1>         0.228200 
     14 N           7.786512   -3.772767   -0.284523 N.1       1 <1>        -0.484700 
     15 C           4.605156   -2.257011   -0.406395 C.ar      1 <1>        -0.154700 
     16 C           3.611410   -1.289228   -0.325774 C.ar      1 <1>        -0.159900 
     17 N           0.991599    0.037011   -0.374220 N.ar      1 <1>        -0.542500 
     18 C          -0.315425    0.254588   -0.510509 C.ar      1 <1>         0.689700 
     19 O          -1.006573   -0.856188   -0.859787 O.3       1 <1>        -0.532000 
     20 C          -2.382921   -0.776400   -1.025893 C.ar      1 <1>         0.358700 
     21 C          -3.209067   -0.991147    0.098912 C.ar      1 <1>        -0.141300 
     22 C          -4.573178   -1.021156   -0.047346 C.ar      1 <1>        -0.207100 
     23 C          -5.173222   -0.841541   -1.321791 C.ar      1 <1>         0.154400 
     24 C          -6.583192   -0.872271   -1.489236 C.ar      1 <1>        -0.196000 
     25 C          -7.154723   -0.700484   -2.728732 C.ar      1 <1>        -0.130600 
     26 C          -6.333509   -0.489721   -3.861067 C.ar      1 <1>        -0.133400 
     27 C          -4.962294   -0.454216   -3.738441 C.ar      1 <1>        -0.194500 
     28 C          -4.341714   -0.627727   -2.472807 C.ar      1 <1>         0.122300 
     29 C          -2.927513   -0.601470   -2.280362 C.ar      1 <1>        -0.187100 
     30 CL         -1.855537   -0.345473   -3.641460 Cl        1 <1>         0.014700 
     31 N          -0.973993    1.389865   -0.341892 N.ar      1 <1>        -0.541400 
     32 H          -3.392364    6.400538    0.442615 H         1 <1>         0.143700 
     33 H          -3.686952    6.211260    2.258790 H         1 <1>         0.150400 
     34 H          -2.624680    3.998426    2.216389 H         1 <1>         0.140400 
     35 H          -2.330677    4.605819   -0.808122 H         1 <1>         0.156500 
     36 H          -2.673117    2.998621   -0.153532 H         1 <1>         0.210100 
     37 H          -0.113961    4.380359    0.448974 H         1 <1>         0.338800 
     38 H           3.415460    1.976450    0.409898 H         1 <1>         0.346300 
     39 H           5.564984    1.352629    0.597713 H         1 <1>         0.136200 
     40 H           7.313932   -0.377497    0.449237 H         1 <1>         0.157600 
     41 H           4.338926   -3.270710   -0.688714 H         1 <1>         0.160600 
     42 H           2.581302   -1.534758   -0.540420 H         1 <1>         0.202400 
     43 H          -2.734758   -1.136446    1.063862 H         1 <1>         0.149600 
     44 H          -5.212152   -1.187646    0.815603 H         1 <1>         0.142100 
     45 H          -7.204489   -1.036102   -0.612145 H         1 <1>         0.136100 
     46 H          -8.234879   -0.726608   -2.841425 H         1 <1>         0.136600 
     47 H          -6.789170   -0.355132   -4.838005 H         1 <1>         0.138000 
     48 H          -4.340613   -0.292864   -4.611635 H         1 <1>         0.158500 
@<TRIPOS>BOND
     1   22   44 1    
     2   21   43 1    
     3   24   45 1    
     4   21   22 ar   
     5   22   23 ar   
     6   20   21 ar   
     7    2   34 1    
     8   23   24 ar   
     9   24   25 ar   
    10   28   23 ar   
    11    1   33 1    
    12   19   20 1    
    13   20   29 ar   
    14   15   41 1    
    15   18   19 1    
    16    2    1 2    
    17    3    2 1    
    18   13   14 3    
    19   16   42 1    
    20   16   15 ar   
    21   15   12 ar   
    22   25   46 1    
    23   12   13 1    
    24   18   17 ar   
    25   31   18 ar   
    26    9   16 ar   
    27   25   26 ar   
    28    7   17 ar   
    29   11   12 ar   
    30    1   32 1    
    31    5   31 ar   
    32    8    9 1    
    33    9   10 ar   
    34    3   36 1    
    35    7    8 1    
    36    6    7 ar   
    37   10   11 ar   
    38   11   40 1    
    39   29   28 ar   
    40   28   27 ar   
    41    8   38 1    
    42    5    6 ar   
    43    4    5 1    
    44   10   39 1    
    45   29   30 1    
    46    3    4 1    
    47    3   35 1    
    48    4   37 1    
    49   26   27 ar   
    50   26   47 1    
    51   27   48 1    
@<TRIPOS>SUBSTRUCTURE
     1 ****       34 TEMP              0 ****  ****    0 ROOT 
