#	Name:			XYZ-2008-EJMC-1230-9J
#	Creating user name:	Administrator
#	Creation time:		Sun Jul 05 17:12:38 2020

#	Modifying user name:	Administrator
#	Modification time:	Sun Jul 05 17:12:51 2020

@<TRIPOS>MOLECULE
XYZ-2008-EJMC-1230-9J
   50    53     1     0     0
SMALL
MULLIKEN_CHARGES
INVALID_CHARGES
Gaussian 16 #p B3LYP/6-31G* opt
@<TRIPOS>ATOM
      1 C           5.086704   -1.577455   -1.811160 C.3       1 <1>        -0.449500 
      2 C           4.263923   -0.307158   -1.575952 C.3       1 <1>        -0.252300 
      3 C           3.795561   -0.184963   -0.119092 C.3       1 <1>        -0.122500 
      4 N           3.024894    1.023496    0.149145 N.3       1 <1>        -0.636400 
      5 C           1.691797    1.142071   -0.030815 C.ar      1 <1>         0.706500 
      6 N           1.167581    2.376147    0.173946 N.ar      1 <1>        -0.570100 
      7 C          -0.150387    2.436271    0.008214 C.ar      1 <1>         0.725600 
      8 N          -0.833085    3.617017    0.177050 N.pl3     1 <1>        -0.779800 
      9 C          -0.419211    4.904917    0.521553 C.ar      1 <1>         0.382500 
     10 C          -1.419834    5.895387    0.585140 C.ar      1 <1>        -0.204500 
     11 C          -1.107697    7.202334    0.920856 C.ar      1 <1>        -0.140500 
     12 C           0.222126    7.560275    1.204891 C.ar      1 <1>         0.132000 
     13 C           0.553064    8.908291    1.552676 C.1       1 <1>         0.227700 
     14 N           0.822013   10.005030    1.835765 N.1       1 <1>        -0.484100 
     15 C           1.219176    6.573028    1.141556 C.ar      1 <1>        -0.153300 
     16 C           0.911796    5.260647    0.805291 C.ar      1 <1>        -0.154500 
     17 N          -0.959058    1.405484   -0.329922 N.ar      1 <1>        -0.555100 
     18 C          -0.305960    0.265530   -0.508058 C.ar      1 <1>         0.684800 
     19 O          -1.010503   -0.840479   -0.852791 O.3       1 <1>        -0.534700 
     20 C          -2.379153   -0.738726   -1.061317 C.ar      1 <1>         0.329100 
     21 C          -3.229206   -1.177610   -0.023152 C.ar      1 <1>        -0.150800 
     22 C          -4.589084   -1.193387   -0.209378 C.ar      1 <1>        -0.204400 
     23 C          -5.160740   -0.772159   -1.438532 C.ar      1 <1>         0.153700 
     24 C          -6.566014   -0.782454   -1.645035 C.ar      1 <1>        -0.197200 
     25 C          -7.111259   -0.374676   -2.840169 C.ar      1 <1>        -0.130700 
     26 C          -6.266414    0.063261   -3.886998 C.ar      1 <1>        -0.133700 
     27 C          -4.899427    0.086424   -3.724347 C.ar      1 <1>        -0.187900 
     28 C          -4.304093   -0.327835   -2.502942 C.ar      1 <1>         0.086600 
     29 C          -2.897229   -0.330144   -2.271216 C.ar      1 <1>        -0.001600 
     30 BR         -1.688687    0.236856   -3.630643 Br        1 <1>        -0.105400 
     31 N           0.997038    0.044885   -0.382380 N.ar      1 <1>        -0.534400 
     32 H           5.410010   -1.649494   -2.854937 H         1 <1>         0.152100 
     33 H           5.985985   -1.595055   -1.182668 H         1 <1>         0.142000 
     34 H           4.501961   -2.476064   -1.581305 H         1 <1>         0.153500 
     35 H           3.379883   -0.304928   -2.224536 H         1 <1>         0.162200 
     36 H           4.856599    0.578884   -1.841870 H         1 <1>         0.130600 
     37 H           3.168383   -1.040080    0.144300 H         1 <1>         0.187500 
     38 H           4.657275   -0.181635    0.559131 H         1 <1>         0.143900 
     39 H           3.509908    1.890377    0.333624 H         1 <1>         0.336100 
     40 H          -1.823391    3.497844    0.002475 H         1 <1>         0.351700 
     41 H          -2.451600    5.629977    0.366927 H         1 <1>         0.140300 
     42 H          -1.889288    7.953812    0.965297 H         1 <1>         0.159000 
     43 H           2.248107    6.841520    1.359666 H         1 <1>         0.156600 
     44 H           1.682111    4.505151    0.757415 H         1 <1>         0.179300 
     45 H          -2.775778   -1.501922    0.907589 H         1 <1>         0.151300 
     46 H          -5.246478   -1.531537    0.587083 H         1 <1>         0.142000 
     47 H          -7.205079   -1.121612   -0.833308 H         1 <1>         0.135900 
     48 H          -8.187999   -0.387926   -2.983394 H         1 <1>         0.136200 
     49 H          -6.700504    0.384664   -4.829676 H         1 <1>         0.137600 
     50 H          -4.257098    0.423198   -4.529993 H         1 <1>         0.156700 
@<TRIPOS>BOND
     1   22   46 1    
     2   21   45 1    
     3   21   22 ar   
     4   22   23 ar   
     5   20   21 ar   
     6   24   47 1    
     7    3   37 1    
     8   23   24 ar   
     9   24   25 ar   
    10    3   38 1    
    11   28   23 ar   
    12   19   20 1    
    13   18   19 1    
    14   20   29 ar   
    15   31   18 ar   
    16   18   17 ar   
    17    5   31 ar   
    18    7   17 ar   
    19    3    4 1    
    20    2    3 1    
    21    4    5 1    
    22    5    6 ar   
    23    4   39 1    
    24    6    7 ar   
    25    7    8 1    
    26    8   40 1    
    27    8    9 1    
    28   16   44 1    
    29    9   16 ar   
    30    9   10 ar   
    31   10   41 1    
    32   16   15 ar   
    33   25   48 1    
    34   10   11 ar   
    35   25   26 ar   
    36    1   34 1    
    37   15   43 1    
    38   15   12 ar   
    39   11   12 ar   
    40   11   42 1    
    41   29   28 ar   
    42   28   27 ar   
    43   29   30 1    
    44    1   33 1    
    45   12   13 1    
    46   13   14 3    
    47    1    2 1    
    48    1   32 1    
    49    2   35 1    
    50    2   36 1    
    51   26   27 ar   
    52   26   49 1    
    53   27   50 1    
@<TRIPOS>SUBSTRUCTURE
     1 ****       34 TEMP              0 ****  ****    0 ROOT 
