#	Name:			XYZ-2009-CB-561-10D
#	Creating user name:	Administrator
#	Creation time:		Sun Jul 05 17:12:39 2020

#	Modifying user name:	Administrator
#	Modification time:	Sun Jul 05 17:12:51 2020

@<TRIPOS>MOLECULE
XYZ-2009-CB-561-10D
   47    49     1     0     0
SMALL
MULLIKEN_CHARGES
INVALID_CHARGES
Gaussian 16 #p B3LYP/6-31G* opt
@<TRIPOS>ATOM
      1 C           4.617906    0.960093    2.770510 C.3       1 <1>        -0.451200 
      2 C           4.092591    2.205150    2.050338 C.3       1 <1>        -0.252200 
      3 C           3.966704    2.032059    0.528309 C.3       1 <1>        -0.131100 
      4 N           3.025379    0.997212    0.120379 N.3       1 <1>        -0.629400 
      5 C           1.690215    1.154644   -0.017376 C.ar      1 <1>         0.700400 
      6 N           1.163361    2.383097    0.190427 N.ar      1 <1>        -0.568600 
      7 C          -0.156113    2.435063    0.006338 C.ar      1 <1>         0.721300 
      8 N          -0.837562    3.618186    0.175253 N.pl3     1 <1>        -0.786000 
      9 C          -0.409777    4.890502    0.532084 C.ar      1 <1>         0.323900 
     10 C           0.907205    5.274347    0.834723 C.ar      1 <1>        -0.166700 
     11 C           1.193603    6.591221    1.180361 C.ar      1 <1>        -0.152000 
     12 C           0.182536    7.563196    1.235940 C.ar      1 <1>         0.133600 
     13 C           0.489824    8.914407    1.592967 C.1       1 <1>         0.230700 
     14 N           0.742755   10.012614    1.883791 N.1       1 <1>        -0.479300 
     15 C          -1.142400    7.195737    0.936615 C.ar      1 <1>        -0.215100 
     16 C          -1.403718    5.887327    0.596754 C.ar      1 <1>         0.316100 
     17 F          -2.675507    5.515801    0.305914 F         1 <1>        -0.297400 
     18 N          -0.957991    1.410591   -0.343635 N.ar      1 <1>        -0.554200 
     19 C          -0.304567    0.261449   -0.506983 C.ar      1 <1>         0.672900 
     20 O          -0.999411   -0.840653   -0.854361 O.3       1 <1>        -0.537800 
     21 C          -2.384983   -0.757512   -1.037370 C.ar      1 <1>         0.351200 
     22 C          -3.232696   -1.024695    0.032583 C.ar      1 <1>        -0.142100 
     23 C          -4.610497   -1.041482   -0.180770 C.ar      1 <1>        -0.195400 
     24 C          -5.154384   -0.795849   -1.448896 C.ar      1 <1>         0.187200 
     25 C          -6.650387   -0.787429   -1.663815 C.3       1 <1>        -0.531200 
     26 C          -4.271985   -0.540405   -2.506848 C.ar      1 <1>        -0.196100 
     27 C          -2.891348   -0.519884   -2.310562 C.ar      1 <1>        -0.142500 
     28 N           0.999006    0.050834   -0.365655 N.ar      1 <1>        -0.536300 
     29 H           3.949357    0.103820    2.625019 H         1 <1>         0.151000 
     30 H           4.699342    1.134064    3.848795 H         1 <1>         0.154200 
     31 H           5.613062    0.677230    2.404112 H         1 <1>         0.141100 
     32 H           4.765636    3.053469    2.235673 H         1 <1>         0.137600 
     33 H           3.111907    2.487384    2.452075 H         1 <1>         0.157400 
     34 H           4.940135    1.766065    0.099456 H         1 <1>         0.148000 
     35 H           3.652795    2.972290    0.066992 H         1 <1>         0.174700 
     36 H           3.347812    0.049408   -0.014618 H         1 <1>         0.344200 
     37 H          -1.830489    3.522225    0.001687 H         1 <1>         0.362300 
     38 H           1.686087    4.527209    0.793320 H         1 <1>         0.201300 
     39 H           2.215478    6.873095    1.411521 H         1 <1>         0.158900 
     40 H          -1.953126    7.914466    0.967676 H         1 <1>         0.173800 
     41 H          -2.812652   -1.224791    1.013308 H         1 <1>         0.140400 
     42 H          -5.274062   -1.254096    0.654280 H         1 <1>         0.128500 
     43 H          -7.155866   -1.492968   -0.995616 H         1 <1>         0.158900 
     44 H          -6.908943   -1.054250   -2.693942 H         1 <1>         0.158200 
     45 H          -7.075951    0.206029   -1.468391 H         1 <1>         0.167200 
     46 H          -4.668931   -0.358606   -3.502801 H         1 <1>         0.128700 
     47 H          -2.208818   -0.331672   -3.133300 H         1 <1>         0.141000 
@<TRIPOS>BOND
     1   27   47 1    
     2   26   46 1    
     3    3   34 1    
     4    3   35 1    
     5   26   27 ar   
     6   27   21 ar   
     7   24   26 ar   
     8    4   36 1    
     9    4    3 1    
    10    3    2 1    
    11    5    4 1    
    12   28    5 ar   
    13    5    6 ar   
    14   19   28 ar   
    15   25   44 1    
    16    7    6 ar   
    17   10   38 1    
    18   20   19 1    
    19   19   18 ar   
    20   21   20 1    
    21   11   39 1    
    22   18    7 ar   
    23    7    8 1    
    24   10   11 ar   
    25    9   10 ar   
    26   11   12 ar   
    27   21   22 ar   
    28    8    9 1    
    29    8   37 1    
    30    9   16 ar   
    31   12   13 1    
    32   15   12 ar   
    33   13   14 3    
    34   16   15 ar   
    35   16   17 1    
    36   15   40 1    
    37   24   25 1    
    38   24   23 ar   
    39   25   45 1    
    40   25   43 1    
    41    2   32 1    
    42    2   33 1    
    43    2    1 1    
    44    1   31 1    
    45   22   23 ar   
    46   22   41 1    
    47   23   42 1    
    48    1   29 1    
    49    1   30 1    
@<TRIPOS>SUBSTRUCTURE
     1 ****       34 TEMP              0 ****  ****    0 ROOT 
