#	Name:			XYZ-2008-EJMC-1230-9O
#	Creating user name:	Administrator
#	Creation time:		Sun Jul 05 17:12:38 2020

#	Modifying user name:	Administrator
#	Modification time:	Sun Jul 05 17:12:51 2020

@<TRIPOS>MOLECULE
XYZ-2008-EJMC-1230-9O
   44    47     1     0     0
SMALL
MULLIKEN_CHARGES
INVALID_CHARGES
Gaussian 16 #p B3LYP/6-31G* opt
@<TRIPOS>ATOM
      1 C           3.767953   -0.198349   -0.116956 C.3       1 <1>        -0.291400 
      2 N           3.022811    1.021345    0.142949 N.3       1 <1>        -0.624600 
      3 C           1.690021    1.142634   -0.029181 C.ar      1 <1>         0.700000 
      4 N           1.167220    2.377176    0.177075 N.ar      1 <1>        -0.567700 
      5 C          -0.150012    2.437410    0.008602 C.ar      1 <1>         0.724800 
      6 N          -0.833886    3.617509    0.176706 N.pl3     1 <1>        -0.779500 
      7 C          -0.420905    4.905719    0.522175 C.ar      1 <1>         0.382300 
      8 C           0.909250    5.261252    0.809899 C.ar      1 <1>        -0.154500 
      9 C           1.215642    6.573718    1.147134 C.ar      1 <1>        -0.153100 
     10 C           0.218406    7.560913    1.207592 C.ar      1 <1>         0.132100 
     11 C           0.548324    8.908843    1.556770 C.1       1 <1>         0.227800 
     12 N           0.816500   10.005423    1.841124 N.1       1 <1>        -0.483800 
     13 C          -1.110473    7.203064    0.919398 C.ar      1 <1>        -0.140400 
     14 C          -1.421625    5.896107    0.582722 C.ar      1 <1>        -0.204500 
     15 N          -0.957828    1.405950   -0.333057 N.ar      1 <1>        -0.557200 
     16 C          -0.305710    0.264552   -0.506342 C.ar      1 <1>         0.684500 
     17 O          -1.008742   -0.839929   -0.854744 O.3       1 <1>        -0.532000 
     18 C          -2.385061   -0.748889   -1.009309 C.ar      1 <1>         0.359500 
     19 C          -3.203248   -0.980639    0.117990 C.ar      1 <1>        -0.141400 
     20 C          -4.568793   -0.999777   -0.016581 C.ar      1 <1>        -0.207200 
     21 C          -5.178768   -0.790974   -1.281840 C.ar      1 <1>         0.154000 
     22 C          -6.590356   -0.809504   -1.437431 C.ar      1 <1>        -0.196400 
     23 C          -7.171717   -0.608824   -2.668016 C.ar      1 <1>        -0.130900 
     24 C          -6.358957   -0.380386   -3.803000 C.ar      1 <1>        -0.133600 
     25 C          -4.986518   -0.356254   -3.691930 C.ar      1 <1>        -0.194700 
     26 C          -4.355920   -0.559306   -2.435590 C.ar      1 <1>         0.122400 
     27 C          -2.940136   -0.546100   -2.255130 C.ar      1 <1>        -0.186800 
     28 CL         -1.878601   -0.270190   -3.620857 Cl        1 <1>         0.013100 
     29 N           0.998444    0.043774   -0.377619 N.ar      1 <1>        -0.531800 
     30 H           3.876963   -0.392350   -1.191359 H         1 <1>         0.171900 
     31 H           4.759962   -0.099963    0.330248 H         1 <1>         0.156600 
     32 H           3.253746   -1.050986    0.331259 H         1 <1>         0.194700 
     33 H           3.516229    1.881342    0.331435 H         1 <1>         0.340700 
     34 H          -1.823779    3.498264    0.000122 H         1 <1>         0.351700 
     35 H           1.679839    4.505973    0.764227 H         1 <1>         0.179200 
     36 H           2.243888    6.842186    1.368252 H         1 <1>         0.156800 
     37 H          -1.892179    7.954564    0.961448 H         1 <1>         0.159300 
     38 H          -2.452710    5.630845    0.361210 H         1 <1>         0.140400 
     39 H          -2.721413   -1.147122    1.075809 H         1 <1>         0.149400 
     40 H          -5.201188   -1.179186    0.848680 H         1 <1>         0.141700 
     41 H          -7.205086   -0.986922   -0.558218 H         1 <1>         0.135800 
     42 H          -8.252981   -0.625609   -2.771561 H         1 <1>         0.136400 
     43 H          -6.822257   -0.222724   -4.773035 H         1 <1>         0.137800 
     44 H          -4.371489   -0.180816   -4.567052 H         1 <1>         0.158200 
@<TRIPOS>BOND
     1   20   40 1    
     2   19   39 1    
     3   22   41 1    
     4   19   20 ar   
     5   20   21 ar   
     6   18   19 ar   
     7   21   22 ar   
     8   22   23 ar   
     9   21   26 ar   
    10    1   32 1    
    11   17   18 1    
    12   18   27 ar   
    13   16   17 1    
    14   16   15 ar   
    15    5   15 ar   
    16   29   16 ar   
    17    6   34 1    
    18    3   29 ar   
    19   23   42 1    
    20    5    6 1    
    21    4    5 ar   
    22    6    7 1    
    23   14   38 1    
    24    3    4 ar   
    25    2    3 1    
    26    1   31 1    
    27    7   14 ar   
    28   14   13 ar   
    29    7    8 ar   
    30   23   24 ar   
    31    2    1 1    
    32    2   33 1    
    33   13   37 1    
    34   13   10 ar   
    35    8   35 1    
    36    8    9 ar   
    37    1   30 1    
    38   10    9 ar   
    39   10   11 1    
    40    9   36 1    
    41   11   12 3    
    42   26   27 ar   
    43   26   25 ar   
    44   27   28 1    
    45   24   25 ar   
    46   24   43 1    
    47   25   44 1    
@<TRIPOS>SUBSTRUCTURE
     1 ****       38 TEMP              0 ****  ****    0 ROOT 
