#	Name:			XYZ-2008-EJMC-1230-9D
#	Creating user name:	Administrator
#	Creation time:		Sun Jul 05 17:12:38 2020

#	Modifying user name:	Administrator
#	Modification time:	Sun Jul 05 17:12:51 2020

@<TRIPOS>MOLECULE
XYZ-2008-EJMC-1230-9D
   50    53     1     0     0
SMALL
MULLIKEN_CHARGES
INVALID_CHARGES
Gaussian 16 #p B3LYP/6-31G* opt
@<TRIPOS>ATOM
      1 C           5.050881    3.213039    2.559271 C.3       1 <1>        -0.449000 
      2 C           4.068631    2.123967    2.117680 C.3       1 <1>        -0.250700 
      3 C           3.926815    2.056963    0.590077 C.3       1 <1>        -0.119500 
      4 N           3.014681    1.019755    0.130148 N.3       1 <1>        -0.635800 
      5 C           1.679678    1.165823   -0.016044 C.ar      1 <1>         0.701200 
      6 N           1.135393    2.377453    0.195777 N.ar      1 <1>        -0.572600 
      7 C          -0.190182    2.421190   -0.003371 C.ar      1 <1>         0.700500 
      8 N          -0.753104    3.658576    0.185940 N.pl3     1 <1>        -0.769400 
      9 C          -2.065055    4.106510   -0.022113 C.ar      1 <1>         0.368100 
     10 C          -2.476506    5.247468    0.689863 C.ar      1 <1>        -0.194800 
     11 C          -3.744661    5.778591    0.508492 C.ar      1 <1>        -0.142200 
     12 C          -4.639106    5.172465   -0.389710 C.ar      1 <1>         0.132500 
     13 C          -5.952560    5.710338   -0.576431 C.1       1 <1>         0.230100 
     14 N          -7.019325    6.151057   -0.727467 N.1       1 <1>        -0.483000 
     15 C          -4.222764    4.038527   -1.107854 C.ar      1 <1>        -0.165100 
     16 C          -2.949194    3.510838   -0.938352 C.ar      1 <1>        -0.139700 
     17 N          -0.975576    1.387391   -0.338294 N.ar      1 <1>        -0.537000 
     18 C          -0.298053    0.252921   -0.512278 C.ar      1 <1>         0.683900 
     19 O          -0.991178   -0.865445   -0.851203 O.3       1 <1>        -0.536100 
     20 C          -2.374083   -0.831748   -0.932416 C.ar      1 <1>         0.336700 
     21 C          -3.090367   -1.442427    0.121132 C.ar      1 <1>        -0.152400 
     22 C          -4.458437   -1.536377    0.065110 C.ar      1 <1>        -0.196800 
     23 C          -5.175650   -1.020750   -1.046266 C.ar      1 <1>         0.154600 
     24 C          -6.591520   -1.106162   -1.111800 C.ar      1 <1>        -0.224600 
     25 C          -7.263737   -0.596931   -2.195218 C.ar      1 <1>         0.084700 
     26 BR         -9.167865   -0.714181   -2.278932 Br        1 <1>        -0.117700 
     27 C          -6.572624    0.019686   -3.262052 C.ar      1 <1>        -0.150100 
     28 C          -5.200451    0.111144   -3.222803 C.ar      1 <1>        -0.193300 
     29 C          -4.459145   -0.402007   -2.124966 C.ar      1 <1>         0.097900 
     30 C          -3.038851   -0.335448   -2.033184 C.ar      1 <1>        -0.009300 
     31 BR         -2.025481    0.471354   -3.426259 Br        1 <1>        -0.100500 
     32 N           1.000657    0.052758   -0.386285 N.ar      1 <1>        -0.537700 
     33 H           4.725713    4.203650    2.218771 H         1 <1>         0.147700 
     34 H           5.136629    3.248274    3.650471 H         1 <1>         0.152500 
     35 H           6.054443    3.035714    2.153103 H         1 <1>         0.145100 
     36 H           4.398838    1.145979    2.493030 H         1 <1>         0.135000 
     37 H           3.078013    2.309693    2.550027 H         1 <1>         0.153400 
     38 H           4.902792    1.866667    0.127447 H         1 <1>         0.146300 
     39 H           3.561725    3.013442    0.206536 H         1 <1>         0.176500 
     40 H           3.349211    0.073446    0.011579 H         1 <1>         0.341400 
     41 H          -0.095259    4.329089    0.562248 H         1 <1>         0.344500 
     42 H          -1.794833    5.711728    1.398154 H         1 <1>         0.138300 
     43 H          -4.052361    6.657530    1.065503 H         1 <1>         0.158400 
     44 H          -4.903462    3.573549   -1.813801 H         1 <1>         0.160500 
     45 H          -2.635530    2.657078   -1.522300 H         1 <1>         0.196300 
     46 H          -2.526303   -1.834102    0.961090 H         1 <1>         0.156200 
     47 H          -5.009366   -2.005590    0.875111 H         1 <1>         0.148500 
     48 H          -7.133079   -1.575413   -0.296982 H         1 <1>         0.158800 
     49 H          -7.128489    0.415701   -4.104649 H         1 <1>         0.161900 
     50 H          -4.667176    0.582221   -4.040576 H         1 <1>         0.165800 
@<TRIPOS>BOND
     1   28   50 1    
     2   30   31 1    
     3   27   49 1    
     4   28   27 ar   
     5   29   28 ar   
     6   15   44 1    
     7   27   25 ar   
     8   16   45 1    
     9    3   38 1    
    10    3   39 1    
    11   16   15 ar   
    12   15   12 ar   
    13    9   16 ar   
    14   30   29 ar   
    15   20   30 ar   
    16   13   14 3    
    17   12   13 1    
    18   29   23 ar   
    19   11   12 ar   
    20    3    4 1    
    21    2    3 1    
    22    4    5 1    
    23    4   40 1    
    24    8    9 1    
    25    9   10 ar   
    26    5    6 ar   
    27    6    7 ar   
    28    8   41 1    
    29    7    8 1    
    30    5   32 ar   
    31    7   17 ar   
    32   32   18 ar   
    33   18   17 ar   
    34   18   19 1    
    35   10   11 ar   
    36   11   43 1    
    37   25   26 1    
    38   24   25 ar   
    39   10   42 1    
    40   19   20 1    
    41   20   21 ar   
    42    1   33 1    
    43    1   35 1    
    44   23   24 ar   
    45   23   22 ar   
    46    1    2 1    
    47    1   34 1    
    48    2   37 1    
    49    2   36 1    
    50   24   48 1    
    51   21   22 ar   
    52   21   46 1    
    53   22   47 1    
@<TRIPOS>SUBSTRUCTURE
     1 ****       33 TEMP              0 ****  ****    0 ROOT 
