#	Name:			XYZ-2008-EJMC-1230-9N
#	Creating user name:	Administrator
#	Creation time:		Sun Jul 05 17:12:38 2020

#	Modifying user name:	Administrator
#	Modification time:	Sun Jul 05 17:12:51 2020

@<TRIPOS>MOLECULE
XYZ-2008-EJMC-1230-9N
   41    44     1     0     0
SMALL
MULLIKEN_CHARGES
INVALID_CHARGES
Gaussian 16 #p B3LYP/6-31G* opt
@<TRIPOS>ATOM
      1 N           7.778162   -3.785579   -0.300704 N.1       1 <1>        -0.483500 
      2 C           6.953979   -2.966666   -0.228523 C.1       1 <1>         0.228800 
      3 C           5.943044   -1.957491   -0.139439 C.ar      1 <1>         0.132700 
      4 C           4.596053   -2.270030   -0.385857 C.ar      1 <1>        -0.154400 
      5 C           3.604484   -1.300040   -0.303453 C.ar      1 <1>        -0.159700 
      6 C           3.949828    0.021385    0.032587 C.ar      1 <1>         0.379200 
      7 N           3.034296    1.073564    0.144182 N.pl3     1 <1>        -0.776100 
      8 C           1.675151    1.137706   -0.028606 C.ar      1 <1>         0.721600 
      9 N           1.156755    2.360321    0.185861 N.ar      1 <1>        -0.561800 
     10 C          -0.169563    2.426688    0.010247 C.ar      1 <1>         0.668600 
     11 N          -0.766881    3.628427    0.178070 N.pl3     1 <1>        -0.770600 
     12 N          -0.972153    1.395740   -0.341583 N.ar      1 <1>        -0.523400 
     13 C          -0.316776    0.258896   -0.506180 C.ar      1 <1>         0.689000 
     14 O          -1.009524   -0.851068   -0.859772 O.3       1 <1>        -0.534400 
     15 C          -2.389625   -0.778140   -0.987631 C.ar      1 <1>         0.331200 
     16 C          -2.918750   -0.672947   -2.292091 C.ar      1 <1>        -0.149200 
     17 C          -4.276879   -0.696072   -2.488421 C.ar      1 <1>        -0.200700 
     18 C          -5.165788   -0.825360   -1.389050 C.ar      1 <1>         0.154900 
     19 C          -6.572592   -0.848627   -1.581731 C.ar      1 <1>        -0.225900 
     20 C          -7.413630   -0.976602   -0.504314 C.ar      1 <1>         0.083800 
     21 BR         -9.305647   -1.005080   -0.768344 Br        1 <1>        -0.121800 
     22 C          -6.908792   -1.088513    0.810252 C.ar      1 <1>        -0.150700 
     23 C          -5.549634   -1.069178    1.021735 C.ar      1 <1>        -0.188000 
     24 C          -4.637230   -0.937774   -0.058872 C.ar      1 <1>         0.094000 
     25 C          -3.221732   -0.912939    0.102656 C.ar      1 <1>        -0.000200 
     26 BR         -2.439347   -1.062867    1.831369 Br        1 <1>        -0.097500 
     27 N           0.991012    0.040148   -0.377831 N.ar      1 <1>        -0.540000 
     28 C           5.300566    0.335665    0.280354 C.ar      1 <1>        -0.205200 
     29 C           6.284387   -0.635982    0.196554 C.ar      1 <1>        -0.140400 
     30 H           4.324179   -3.288382   -0.645122 H         1 <1>         0.161200 
     31 H           2.570534   -1.548760   -0.494174 H         1 <1>         0.201800 
     32 H           3.420385    1.973008    0.402410 H         1 <1>         0.347500 
     33 H          -0.231191    4.386740    0.571038 H         1 <1>         0.350600 
     34 H          -1.774461    3.667529    0.192251 H         1 <1>         0.354700 
     35 H          -2.224455   -0.580796   -3.120687 H         1 <1>         0.156300 
     36 H          -4.687614   -0.616256   -3.490825 H         1 <1>         0.148100 
     37 H          -6.971915   -0.764374   -2.587148 H         1 <1>         0.158000 
     38 H          -7.595825   -1.189196    1.643133 H         1 <1>         0.159900 
     39 H          -5.160212   -1.154829    2.029699 H         1 <1>         0.165800 
     40 H           5.575794    1.355065    0.540810 H         1 <1>         0.137200 
     41 H           7.320815   -0.378994    0.389961 H         1 <1>         0.158600 
@<TRIPOS>BOND
     1   17   36 1    
     2   16   35 1    
     3   16   17 ar   
     4   17   18 ar   
     5   19   37 1    
     6   15   16 ar   
     7   18   19 ar   
     8   19   20 ar   
     9   18   24 ar   
    10   14   15 1    
    11   15   25 ar   
    12   13   14 1    
    13    4   30 1    
    14   27   13 ar   
    15   13   12 ar   
    16    5   31 1    
    17    5    4 ar   
    18    4    3 ar   
    19    8   27 ar   
    20   10   12 ar   
    21    2    1 3    
    22    6    5 ar   
    23   20   21 1    
    24    3    2 1    
    25    3   29 ar   
    26   20   22 ar   
    27    7    8 1    
    28    8    9 ar   
    29   10   11 1    
    30    9   10 ar   
    31    6    7 1    
    32    6   28 ar   
    33    7   32 1    
    34   11   34 1    
    35   11   33 1    
    36   29   28 ar   
    37   29   41 1    
    38   28   40 1    
    39   24   25 ar   
    40   24   23 ar   
    41   25   26 1    
    42   22   23 ar   
    43   22   38 1    
    44   23   39 1    
@<TRIPOS>SUBSTRUCTURE
     1 ****        1 TEMP              0 ****  ****    0 ROOT 
