#	Name:			XYZ-2009-CB-561-8F
#	Creating user name:	Administrator
#	Creation time:		Sun Jul 05 17:12:40 2020

#	Modifying user name:	Administrator
#	Modification time:	Sun Jul 05 17:12:51 2020

@<TRIPOS>MOLECULE
XYZ-2009-CB-561-8F
   41    44     1     0     0
SMALL
MULLIKEN_CHARGES
INVALID_CHARGES
Gaussian 16 #p B3LYP/6-31G* opt
@<TRIPOS>ATOM
      1 N           7.790031   -3.778611   -0.270769 N.1       1 <1>        -0.479400 
      2 C           6.961554   -2.963809   -0.204454 C.1       1 <1>         0.231500 
      3 C           5.942128   -1.962683   -0.122681 C.ar      1 <1>         0.133900 
      4 C           4.602566   -2.281417   -0.395695 C.ar      1 <1>        -0.150200 
      5 C           3.602167   -1.317193   -0.319063 C.ar      1 <1>        -0.163000 
      6 C           3.921366    0.004132    0.036539 C.ar      1 <1>         0.320800 
      7 N           3.031720    1.068490    0.152182 N.pl3     1 <1>        -0.782300 
      8 C           1.673161    1.139704   -0.028003 C.ar      1 <1>         0.726500 
      9 N           1.160174    2.365829    0.166404 N.ar      1 <1>        -0.560100 
     10 C          -0.167918    2.430026   -0.003684 C.ar      1 <1>         0.668300 
     11 N          -0.769919    3.623280    0.200403 N.3       1 <1>        -0.770700 
     12 N          -0.970748    1.396785   -0.345956 N.ar      1 <1>        -0.521000 
     13 C          -0.316777    0.259117   -0.511451 C.ar      1 <1>         0.690400 
     14 O          -1.008163   -0.852081   -0.856051 O.3       1 <1>        -0.534300 
     15 C          -2.376546   -0.760485   -1.081310 C.ar      1 <1>         0.328300 
     16 C          -3.236112   -1.187987   -0.046745 C.ar      1 <1>        -0.149400 
     17 C          -4.593340   -1.213204   -0.249945 C.ar      1 <1>        -0.204000 
     18 C          -5.151374   -0.813337   -1.492451 C.ar      1 <1>         0.154400 
     19 C          -6.553942   -0.834039   -1.716215 C.ar      1 <1>        -0.197000 
     20 C          -7.086067   -0.447207   -2.924153 C.ar      1 <1>        -0.130400 
     21 C          -6.230376   -0.020854   -3.966950 C.ar      1 <1>        -0.133600 
     22 C          -4.865742    0.011981   -3.787625 C.ar      1 <1>        -0.187600 
     23 C          -4.283991   -0.380681   -2.552738 C.ar      1 <1>         0.086800 
     24 C          -2.880135   -0.372156   -2.303481 C.ar      1 <1>        -0.000700 
     25 BR         -1.656836    0.179958   -3.655750 Br        1 <1>        -0.104400 
     26 N           0.990786    0.039274   -0.369455 N.ar      1 <1>        -0.543400 
     27 C           5.272976    0.295221    0.304181 C.ar      1 <1>         0.313700 
     28 F           5.577596    1.572946    0.646402 F         1 <1>        -0.299700 
     29 C           6.277684   -0.643846    0.234226 C.ar      1 <1>        -0.214800 
     30 H           4.342574   -3.297797   -0.671783 H         1 <1>         0.163500 
     31 H           2.572117   -1.566285   -0.530220 H         1 <1>         0.208000 
     32 H           3.443904    1.955696    0.411769 H         1 <1>         0.358400 
     33 H          -1.738711    3.724846   -0.060265 H         1 <1>         0.354900 
     34 H          -0.195466    4.442693    0.323162 H         1 <1>         0.351300 
     35 H          -2.793036   -1.495942    0.894544 H         1 <1>         0.152000 
     36 H          -5.259011   -1.542546    0.543141 H         1 <1>         0.142800 
     37 H          -7.201404   -1.164295   -0.907565 H         1 <1>         0.136400 
     38 H          -8.160871   -0.468338   -3.080529 H         1 <1>         0.136700 
     39 H          -6.654293    0.283729   -4.919801 H         1 <1>         0.137900 
     40 H          -4.215085    0.339680   -4.590397 H         1 <1>         0.156800 
     41 H           7.299306   -0.355262    0.452616 H         1 <1>         0.173000 
@<TRIPOS>BOND
     1   22   40 1    
     2   24   25 1    
     3   21   39 1    
     4   22   21 ar   
     5   23   22 ar   
     6   21   20 ar   
     7   27   28 1    
     8   11   34 1    
     9   29   41 1    
    10    7   32 1    
    11   24   23 ar   
    12   15   24 ar   
    13   27   29 ar   
    14    6   27 ar   
    15   29    3 ar   
    16   10    9 ar   
    17    8    9 ar   
    18   11   33 1    
    19   23   18 ar   
    20    7    6 1    
    21    8    7 1    
    22   10   11 1    
    23    6    5 ar   
    24   12   10 ar   
    25   26    8 ar   
    26    3    2 1    
    27    4    3 ar   
    28    2    1 3    
    29    5    4 ar   
    30    5   31 1    
    31   20   38 1    
    32   20   19 ar   
    33    4   30 1    
    34   13   12 ar   
    35   13   26 ar   
    36   14   13 1    
    37   14   15 1    
    38   15   16 ar   
    39   18   19 ar   
    40   18   17 ar   
    41   19   37 1    
    42   16   17 ar   
    43   16   35 1    
    44   17   36 1    
@<TRIPOS>SUBSTRUCTURE
     1 ****       34 TEMP              0 ****  ****    0 ROOT 
