#	Name:			XYZ-2009-CB-561-10C
#	Creating user name:	Administrator
#	Creation time:		Sun Jul 05 17:12:39 2020

#	Modifying user name:	Administrator
#	Modification time:	Sun Jul 05 17:12:51 2020

@<TRIPOS>MOLECULE
XYZ-2009-CB-561-10C
   44    46     1     0     0
SMALL
MULLIKEN_CHARGES
INVALID_CHARGES
Gaussian 16 #p B3LYP/6-31G* opt
@<TRIPOS>ATOM
      1 C           3.834182   -0.984322    1.371481 C.3       1 <1>        -0.441600 
      2 C           3.771939   -0.222865    0.044198 C.3       1 <1>        -0.127100 
      3 N           3.027901    1.029244    0.127423 N.3       1 <1>        -0.628300 
      4 C           1.689382    1.139797   -0.020009 C.ar      1 <1>         0.704600 
      5 N           1.165846    2.375347    0.184394 N.ar      1 <1>        -0.572300 
      6 C          -0.150544    2.433840    0.006620 C.ar      1 <1>         0.725900 
      7 N          -0.829213    3.617924    0.178955 N.pl3     1 <1>        -0.784600 
      8 C          -0.393051    4.889097    0.530260 C.ar      1 <1>         0.324300 
      9 C           0.931684    5.271653    0.799531 C.ar      1 <1>        -0.158500 
     10 C           1.227026    6.587666    1.141025 C.ar      1 <1>        -0.149000 
     11 C           0.217928    7.559831    1.224621 C.ar      1 <1>         0.133400 
     12 C           0.534514    8.910015    1.577117 C.1       1 <1>         0.230500 
     13 N           0.795007   10.007509    1.864213 N.1       1 <1>        -0.479500 
     14 C          -1.114279    7.193589    0.957579 C.ar      1 <1>        -0.215100 
     15 C          -1.384586    5.886026    0.621527 C.ar      1 <1>         0.315100 
     16 F          -2.663144    5.515731    0.360589 F         1 <1>        -0.297800 
     17 N          -0.958683    1.409905   -0.343986 N.ar      1 <1>        -0.554600 
     18 C          -0.310717    0.261545   -0.508639 C.ar      1 <1>         0.669300 
     19 O          -1.006259   -0.839360   -0.857241 O.3       1 <1>        -0.537200 
     20 C          -2.390153   -0.751756   -1.052258 C.ar      1 <1>         0.351100 
     21 C          -3.244310   -1.088976   -0.008200 C.ar      1 <1>        -0.143800 
     22 C          -4.620700   -1.101037   -0.233823 C.ar      1 <1>        -0.195900 
     23 C          -5.155734   -0.780877   -1.488441 C.ar      1 <1>         0.187200 
     24 C          -6.649634   -0.767235   -1.717088 C.3       1 <1>        -0.531200 
     25 C          -4.266160   -0.455203   -2.521590 C.ar      1 <1>        -0.195500 
     26 C          -2.887716   -0.439086   -2.313158 C.ar      1 <1>        -0.140500 
     27 N           0.994605    0.042181   -0.363129 N.ar      1 <1>        -0.533100 
     28 H           4.304648   -0.380673    2.156095 H         1 <1>         0.142800 
     29 H           2.827032   -1.257688    1.700406 H         1 <1>         0.172500 
     30 H           4.418638   -1.904106    1.253666 H         1 <1>         0.150300 
     31 H           4.780206    0.021600   -0.308005 H         1 <1>         0.147900 
     32 H           3.291583   -0.837345   -0.720051 H         1 <1>         0.192000 
     33 H           3.492626    1.861719    0.461484 H         1 <1>         0.335100 
     34 H          -1.824159    3.524032    0.016440 H         1 <1>         0.362000 
     35 H           1.708776    4.524303    0.735203 H         1 <1>         0.184900 
     36 H           2.254510    6.868939    1.346195 H         1 <1>         0.159100 
     37 H          -1.923567    7.912674    1.010587 H         1 <1>         0.173600 
     38 H          -2.830560   -1.346566    0.961654 H         1 <1>         0.140700 
     39 H          -5.289492   -1.368549    0.580825 H         1 <1>         0.128800 
     40 H          -7.164793   -1.459277   -1.042641 H         1 <1>         0.158300 
     41 H          -6.900780   -1.048497   -2.745459 H         1 <1>         0.158900 
     42 H          -7.070839    0.231875   -1.541983 H         1 <1>         0.167500 
     43 H          -4.656277   -0.214398   -3.507743 H         1 <1>         0.128800 
     44 H          -2.200269   -0.196085   -3.117112 H         1 <1>         0.140800 
@<TRIPOS>BOND
     1   26   44 1    
     2   25   43 1    
     3   25   26 ar   
     4   26   20 ar   
     5   23   25 ar   
     6    2   31 1    
     7    2   32 1    
     8   24   41 1    
     9    3    2 1    
    10    3   33 1    
    11    4    3 1    
    12    2    1 1    
    13   27    4 ar   
    14    4    5 ar   
    15   18   27 ar   
    16    6    5 ar   
    17    9   35 1    
    18   19   18 1    
    19   18   17 ar   
    20   20   19 1    
    21   10   36 1    
    22   17    6 ar   
    23    6    7 1    
    24    9   10 ar   
    25    8    9 ar   
    26   20   21 ar   
    27   10   11 ar   
    28    7    8 1    
    29    7   34 1    
    30    8   15 ar   
    31   11   12 1    
    32   11   14 ar   
    33   12   13 3    
    34   23   24 1    
    35   23   22 ar   
    36   15   14 ar   
    37   15   16 1    
    38   14   37 1    
    39   24   42 1    
    40   24   40 1    
    41    1   30 1    
    42    1   28 1    
    43    1   29 1    
    44   21   22 ar   
    45   21   38 1    
    46   22   39 1    
@<TRIPOS>SUBSTRUCTURE
     1 ****       31 TEMP              0 ****  ****    0 ROOT 
