#	Name:			XYZ-2009-CB-561-8I
#	Creating user name:	Administrator
#	Creation time:		Sun Jul 05 17:12:40 2020

#	Modifying user name:	Administrator
#	Modification time:	Sun Jul 05 17:12:51 2020

@<TRIPOS>MOLECULE
XYZ-2009-CB-561-8I
   50    53     1     0     0
SMALL
MULLIKEN_CHARGES
INVALID_CHARGES
Gaussian 16 #p B3LYP/6-31G* opt
@<TRIPOS>ATOM
      1 C          -2.978251    3.563592    1.327310 C.3       1 <1>        -0.438800 
      2 C          -2.218782    3.903873    0.037571 C.3       1 <1>         0.058500 
      3 C          -2.410687    5.363019   -0.384124 C.3       1 <1>        -0.466100 
      4 N          -0.782748    3.637511    0.172934 N.3       1 <1>        -0.643200 
      5 C          -0.194393    2.435743    0.008022 C.ar      1 <1>         0.713900 
      6 N           1.147449    2.387090    0.184767 N.ar      1 <1>        -0.572600 
      7 C           1.673765    1.180361   -0.019433 C.ar      1 <1>         0.726800 
      8 N           3.025343    0.974681    0.128395 N.pl3     1 <1>        -0.784000 
      9 C           4.058544    1.835250    0.476714 C.ar      1 <1>         0.324200 
     10 C           3.940928    3.202975    0.775528 C.ar      1 <1>        -0.158200 
     11 C           5.066922    3.948070    1.111142 C.ar      1 <1>        -0.149100 
     12 C           6.339554    3.357946    1.159862 C.ar      1 <1>         0.133500 
     13 C           7.489759    4.135166    1.507162 C.1       1 <1>         0.230500 
     14 N           8.423016    4.770265    1.790427 N.1       1 <1>        -0.479600 
     15 C           6.475356    1.989217    0.863172 C.ar      1 <1>        -0.215000 
     16 C           5.348234    1.270297    0.533343 C.ar      1 <1>         0.316000 
     17 F           5.460781   -0.049881    0.244555 F         1 <1>        -0.296900 
     18 N           1.006756    0.063288   -0.377082 N.ar      1 <1>        -0.549500 
     19 C          -0.297853    0.259934   -0.508827 C.ar      1 <1>         0.686300 
     20 O          -0.982306   -0.856087   -0.859138 O.3       1 <1>        -0.533600 
     21 C          -2.357308   -0.788287   -1.037562 C.ar      1 <1>         0.328300 
     22 C          -3.166845   -1.305834   -0.003045 C.ar      1 <1>        -0.152300 
     23 C          -4.529676   -1.360081   -0.158059 C.ar      1 <1>        -0.204000 
     24 C          -5.145225   -0.900554   -1.351583 C.ar      1 <1>         0.153800 
     25 C          -6.554106   -0.949461   -1.525742 C.ar      1 <1>        -0.197100 
     26 C          -7.142039   -0.504103   -2.686791 C.ar      1 <1>        -0.130800 
     27 C          -6.338415    0.012337   -3.730267 C.ar      1 <1>        -0.133800 
     28 C          -4.969456    0.074919   -3.598137 C.ar      1 <1>        -0.188400 
     29 C          -4.330357   -0.376479   -2.412453 C.ar      1 <1>         0.086300 
     30 C          -2.918628   -0.341230   -2.214257 C.ar      1 <1>         0.000300 
     31 BR         -1.766328    0.332459   -3.573266 Br        1 <1>        -0.104500 
     32 N          -0.973696    1.387901   -0.325251 N.ar      1 <1>        -0.536200 
     33 H          -2.632405    4.185528    2.161928 H         1 <1>         0.139200 
     34 H          -2.830016    2.512193    1.589710 H         1 <1>         0.169500 
     35 H          -4.052581    3.735758    1.195003 H         1 <1>         0.147200 
     36 H          -2.576184    3.246691   -0.760579 H         1 <1>         0.180800 
     37 H          -2.033550    6.050242    0.385022 H         1 <1>         0.142600 
     38 H          -1.889417    5.575991   -1.323263 H         1 <1>         0.161700 
     39 H          -3.474322    5.579312   -0.524699 H         1 <1>         0.161000 
     40 H          -0.169308    4.384018    0.470547 H         1 <1>         0.332900 
     41 H           3.295303    0.016873   -0.058841 H         1 <1>         0.363000 
     42 H           2.962101    3.658152    0.737867 H         1 <1>         0.184200 
     43 H           4.961025    5.003294    1.339291 H         1 <1>         0.158700 
     44 H           7.439284    1.494171    0.888642 H         1 <1>         0.174000 
     45 H          -2.679448   -1.659853    0.899448 H         1 <1>         0.152000 
     46 H          -5.155111   -1.759281    0.635767 H         1 <1>         0.142100 
     47 H          -7.161121   -1.349377   -0.717165 H         1 <1>         0.135900 
     48 H          -8.221007   -0.548066   -2.805698 H         1 <1>         0.136200 
     49 H          -6.806009    0.362833   -4.646137 H         1 <1>         0.137400 
     50 H          -4.358820    0.471471   -4.401295 H         1 <1>         0.156600 
@<TRIPOS>BOND
     1   28   50 1    
     2    3   38 1    
     3   27   49 1    
     4   30   31 1    
     5   28   27 ar   
     6   29   28 ar   
     7   27   26 ar   
     8    3   39 1    
     9    3   37 1    
    10    2    3 1    
    11   13   14 3    
    12   11   43 1    
    13    2   36 1    
    14   12   13 1    
    15   11   12 ar   
    16   10   11 ar   
    17    4   40 1    
    18   15   12 ar   
    19   30   29 ar   
    20   21   30 ar   
    21   10   42 1    
    22   29   24 ar   
    23    4    2 1    
    24    2    1 1    
    25    9   10 ar   
    26    5    4 1    
    27   15   44 1    
    28   16   15 ar   
    29   26   48 1    
    30   26   25 ar   
    31    5    6 ar   
    32    7    6 ar   
    33   32    5 ar   
    34    9   16 ar   
    35    8    9 1    
    36   16   17 1    
    37    7    8 1    
    38   18    7 ar   
    39    8   41 1    
    40   19   32 ar   
    41   19   18 ar   
    42   20   19 1    
    43   20   21 1    
    44   21   22 ar   
    45   24   25 ar   
    46   24   23 ar   
    47   25   47 1    
    48    1   35 1    
    49    1   33 1    
    50    1   34 1    
    51   22   23 ar   
    52   22   45 1    
    53   23   46 1    
@<TRIPOS>SUBSTRUCTURE
     1 ****       38 TEMP              0 ****  ****    0 ROOT 
