#	Name:			XYZ-2008-EJMC-1230-9L
#	Creating user name:	Administrator
#	Creation time:		Sun Jul 05 17:12:38 2020

#	Modifying user name:	Administrator
#	Modification time:	Sun Jul 05 17:12:51 2020

@<TRIPOS>MOLECULE
XYZ-2008-EJMC-1230-9L
   50    53     1     0     0
SMALL
MULLIKEN_CHARGES
INVALID_CHARGES
Gaussian 16 #p B3LYP/6-31G* opt
@<TRIPOS>ATOM
      1 C          -1.067057    6.247388   -1.395359 C.3       1 <1>        -0.441200 
      2 C          -1.004530    6.082618    0.126653 C.3       1 <1>        -0.287300 
      3 C          -0.186021    4.872578    0.589207 C.3       1 <1>        -0.102700 
      4 N          -0.809410    3.624502    0.169847 N.3       1 <1>        -0.642000 
      5 C          -0.181187    2.441174    0.009445 C.ar      1 <1>         0.708700 
      6 N           1.153503    2.387961    0.191340 N.ar      1 <1>        -0.566900 
      7 C           1.678158    1.176775   -0.018442 C.ar      1 <1>         0.719500 
      8 N           3.029435    0.967072    0.120364 N.pl3     1 <1>        -0.778500 
      9 C           4.086067    1.807123    0.475243 C.ar      1 <1>         0.381500 
     10 C           5.378643    1.245891    0.443393 C.ar      1 <1>        -0.203300 
     11 C           6.490266    1.997725    0.785875 C.ar      1 <1>        -0.140800 
     12 C           6.342467    3.341369    1.172894 C.ar      1 <1>         0.132200 
     13 C           7.485409    4.125778    1.527547 C.1       1 <1>         0.227700 
     14 N           8.414901    4.764513    1.816251 N.1       1 <1>        -0.484200 
     15 C           5.054198    3.900110    1.206519 C.ar      1 <1>        -0.156200 
     16 C           3.935731    3.150405    0.864704 C.ar      1 <1>        -0.159600 
     17 N           1.006201    0.063528   -0.370886 N.ar      1 <1>        -0.550500 
     18 C          -0.300638    0.264939   -0.506191 C.ar      1 <1>         0.687200 
     19 O          -0.984807   -0.851262   -0.857077 O.3       1 <1>        -0.533700 
     20 C          -2.361414   -0.780642   -1.016780 C.ar      1 <1>         0.361100 
     21 C          -3.181615   -1.003962    0.110919 C.ar      1 <1>        -0.140300 
     22 C          -4.546117   -1.043685   -0.028855 C.ar      1 <1>        -0.207200 
     23 C          -5.153404   -0.865339   -1.299970 C.ar      1 <1>         0.154300 
     24 C          -6.563840   -0.905961   -1.461164 C.ar      1 <1>        -0.196400 
     25 C          -7.142519   -0.735177   -2.697440 C.ar      1 <1>        -0.131000 
     26 C          -6.328024   -0.515537   -3.832972 C.ar      1 <1>        -0.133700 
     27 C          -4.956546   -0.470398   -3.716431 C.ar      1 <1>        -0.194700 
     28 C          -4.328671   -0.642659   -2.454165 C.ar      1 <1>         0.122700 
     29 C          -2.914000   -0.606684   -2.267962 C.ar      1 <1>        -0.187000 
     30 CL         -1.850529   -0.339266   -3.633913 Cl        1 <1>         0.012700 
     31 N          -0.968938    1.395733   -0.334013 N.ar      1 <1>        -0.545300 
     32 H          -1.517501    5.373542   -1.878400 H         1 <1>         0.155900 
     33 H          -0.063191    6.376341   -1.817029 H         1 <1>         0.151700 
     34 H          -1.661148    7.125643   -1.669568 H         1 <1>         0.151700 
     35 H          -0.558406    6.976375    0.580184 H         1 <1>         0.151100 
     36 H          -2.021046    6.011454    0.541004 H         1 <1>         0.138100 
     37 H          -0.071146    4.892556    1.683035 H         1 <1>         0.151800 
     38 H           0.819195    4.905458    0.159005 H         1 <1>         0.178100 
     39 H          -1.816147    3.582041    0.082599 H         1 <1>         0.341200 
     40 H           3.273840    0.007522   -0.092234 H         1 <1>         0.352400 
     41 H           5.505098    0.208288    0.143624 H         1 <1>         0.141200 
     42 H           7.478907    1.551350    0.755401 H         1 <1>         0.159300 
     43 H           4.931561    4.935977    1.506926 H         1 <1>         0.155500 
     44 H           2.947256    3.584175    0.895154 H         1 <1>         0.190900 
     45 H          -2.701769   -1.147187    1.073381 H         1 <1>         0.148800 
     46 H          -5.179768   -1.216772    0.836808 H         1 <1>         0.141000 
     47 H          -7.179934   -1.076620   -0.581597 H         1 <1>         0.135300 
     48 H          -8.222998   -0.768867   -2.805225 H         1 <1>         0.135800 
     49 H          -6.789058   -0.381542   -4.807576 H         1 <1>         0.137200 
     50 H          -4.340008   -0.302140   -4.592029 H         1 <1>         0.157900 
@<TRIPOS>BOND
     1   27   50 1    
     2   29   30 1    
     3   26   49 1    
     4    1   33 1    
     5    1   34 1    
     6    1   32 1    
     7   27   26 ar   
     8   28   27 ar   
     9    2    1 1    
    10   26   25 ar   
    11   29   28 ar   
    12   20   29 ar   
    13   11   42 1    
    14   10   41 1    
    15   28   23 ar   
    16   10   11 ar   
    17   11   12 ar   
    18   13   14 3    
    19    9   10 ar   
    20   12   13 1    
    21   15   12 ar   
    22    3   38 1    
    23    8   40 1    
    24    8    9 1    
    25    9   16 ar   
    26    7    8 1    
    27   25   48 1    
    28   25   24 ar   
    29   16   15 ar   
    30   15   43 1    
    31    2   35 1    
    32    3    2 1    
    33    2   36 1    
    34   16   44 1    
    35    7   17 ar   
    36    6    7 ar   
    37   18   17 ar   
    38    5    6 ar   
    39   18   19 1    
    40   31   18 ar   
    41   19   20 1    
    42    5   31 ar   
    43    4    5 1    
    44   20   21 ar   
    45    4    3 1    
    46    4   39 1    
    47    3   37 1    
    48   23   24 ar   
    49   23   22 ar   
    50   24   47 1    
    51   21   22 ar   
    52   21   45 1    
    53   22   46 1    
@<TRIPOS>SUBSTRUCTURE
     1 ****       14 TEMP              0 ****  ****    0 ROOT 
