#	Name:			XYZ-2009-APC-145-6A
#	Creating user name:	Administrator
#	Creation time:		Sun Jul 05 17:12:39 2020

#	Modifying user name:	Administrator
#	Modification time:	Sun Jul 05 17:12:51 2020

@<TRIPOS>MOLECULE
XYZ-2009-APC-145-6A
   48    51     1     0     0
SMALL
MULLIKEN_CHARGES
INVALID_CHARGES
Gaussian 16 #p B3LYP/6-31G* opt
@<TRIPOS>ATOM
      1 C           6.355175    2.052592   -0.280991 C.2       1 <1>        -0.337700 
      2 C           5.056459    2.190760   -0.546890 C.2       1 <1>        -0.052900 
      3 C           3.964324    2.064906    0.483161 C.3       1 <1>        -0.175600 
      4 N           3.014172    1.016357    0.135098 N.3       1 <1>        -0.634700 
      5 C           1.679257    1.169547   -0.021326 C.ar      1 <1>         0.702700 
      6 N           1.135027    2.382306    0.176361 N.ar      1 <1>        -0.578300 
      7 C          -0.194549    2.420516   -0.002401 C.ar      1 <1>         0.723600 
      8 N          -0.748702    3.660564    0.200775 N.pl3     1 <1>        -0.777500 
      9 C          -2.063037    4.130647    0.114653 C.ar      1 <1>         0.377800 
     10 C          -3.169990    3.336204   -0.235158 C.ar      1 <1>        -0.161400 
     11 C          -4.435632    3.906331   -0.292956 C.ar      1 <1>        -0.158000 
     12 C          -4.635522    5.267199   -0.008502 C.ar      1 <1>         0.132400 
     13 C          -5.945100    5.840759   -0.073266 C.1       1 <1>         0.228000 
     14 N          -7.009844    6.308302   -0.126502 N.1       1 <1>        -0.485200 
     15 C          -3.527398    6.058525    0.340956 C.ar      1 <1>        -0.141000 
     16 C          -2.262876    5.495944    0.400625 C.ar      1 <1>        -0.204700 
     17 N          -0.975817    1.387865   -0.346190 N.ar      1 <1>        -0.546600 
     18 C          -0.300179    0.246957   -0.510585 C.ar      1 <1>         0.681700 
     19 O          -0.987416   -0.864811   -0.855973 O.3       1 <1>        -0.540700 
     20 C          -2.372868   -0.800419   -1.033710 C.ar      1 <1>         0.281200 
     21 C          -2.887040   -0.398830   -2.242177 C.ar      1 <1>        -0.155100 
     22 C          -4.287454   -0.411084   -2.444473 C.ar      1 <1>        -0.152900 
     23 C          -5.133663   -0.828831   -1.442395 C.ar      1 <1>        -0.182400 
     24 C          -4.618974   -1.262435   -0.190834 C.ar      1 <1>         0.120600 
     25 C          -5.464874   -1.707882    0.860461 C.ar      1 <1>        -0.195200 
     26 C          -4.939725   -2.128005    2.061268 C.ar      1 <1>        -0.129600 
     27 C          -3.538565   -2.126190    2.267350 C.ar      1 <1>        -0.135800 
     28 C          -2.686214   -1.700436    1.273670 C.ar      1 <1>        -0.187400 
     29 C          -3.201658   -1.255423    0.027608 C.ar      1 <1>         0.115400 
     30 N           1.000523    0.051122   -0.371370 N.ar      1 <1>        -0.539300 
     31 H           6.712019    1.831358    0.723146 H         1 <1>         0.143200 
     32 H           7.112975    2.163273   -1.051672 H         1 <1>         0.151200 
     33 H           4.723557    2.404986   -1.562419 H         1 <1>         0.141900 
     34 H           4.399913    1.865042    1.471687 H         1 <1>         0.155100 
     35 H           3.386783    2.990493    0.557004 H         1 <1>         0.196300 
     36 H           3.358089    0.082250   -0.043489 H         1 <1>         0.343400 
     37 H          -0.048321    4.344037    0.459501 H         1 <1>         0.345300 
     38 H          -3.028313    2.288362   -0.455426 H         1 <1>         0.208400 
     39 H          -5.284396    3.286275   -0.563203 H         1 <1>         0.160400 
     40 H          -3.665307    7.111587    0.563893 H         1 <1>         0.157600 
     41 H          -1.412786    6.117614    0.672230 H         1 <1>         0.136300 
     42 H          -2.213484   -0.073195   -3.028048 H         1 <1>         0.142800 
     43 H          -4.687629   -0.088301   -3.401274 H         1 <1>         0.139200 
     44 H          -6.209419   -0.839086   -1.598067 H         1 <1>         0.134300 
     45 H          -6.539848   -1.712081    0.697268 H         1 <1>         0.134500 
     46 H          -5.599507   -2.465999    2.855642 H         1 <1>         0.134200 
     47 H          -3.135295   -2.466230    3.217238 H         1 <1>         0.134000 
     48 H          -1.612062   -1.710052    1.425021 H         1 <1>         0.150400 
@<TRIPOS>BOND
     1   22   43 1    
     2   21   42 1    
     3   21   22 ar   
     4   22   23 ar   
     5   20   21 ar   
     6   23   44 1    
     7   24   23 ar   
     8    2   33 1    
     9   19   20 1    
    10   20   29 ar   
    11    1   32 1    
    12   18   19 1    
    13   11   39 1    
    14   30   18 ar   
    15   18   17 ar   
    16    2    1 2    
    17    3    2 1    
    18   10   38 1    
    19    5   30 ar   
    20    7   17 ar   
    21   10   11 ar   
    22   11   12 ar   
    23   29   24 ar   
    24   24   25 ar   
    25    9   10 ar   
    26    1   31 1    
    27   13   14 3    
    28   29   28 ar   
    29   12   13 1    
    30    4   36 1    
    31    4    5 1    
    32    5    6 ar   
    33    6    7 ar   
    34    7    8 1    
    35   12   15 ar   
    36    8    9 1    
    37    9   16 ar   
    38    4    3 1    
    39    8   37 1    
    40   15   16 ar   
    41   15   40 1    
    42   16   41 1    
    43    3   35 1    
    44    3   34 1    
    45   25   45 1    
    46   25   26 ar   
    47   28   48 1    
    48   28   27 ar   
    49   26   27 ar   
    50   26   46 1    
    51   27   47 1    
@<TRIPOS>SUBSTRUCTURE
     1 ****       14 TEMP              0 ****  ****    0 ROOT 
