#	Name:			XYZ-2009-CB-561-8N
#	Creating user name:	Administrator
#	Creation time:		Sun Jul 05 17:12:41 2020

#	Modifying user name:	Administrator
#	Modification time:	Sun Jul 05 17:12:51 2020

@<TRIPOS>MOLECULE
XYZ-2009-CB-561-8N
   50    53     1     0     0
SMALL
MULLIKEN_CHARGES
INVALID_CHARGES
Gaussian 16 #p B3LYP/6-31G* opt
@<TRIPOS>ATOM
      1 C          -3.971950    4.630009   -1.730239 C.3       1 <1>        -0.450100 
      2 C          -2.487293    4.326292   -1.508402 C.3       1 <1>        -0.254000 
      3 C          -2.192791    3.918642   -0.057794 C.3       1 <1>        -0.124500 
      4 N          -0.784959    3.634453    0.196489 N.3       1 <1>        -0.635400 
      5 C          -0.192833    2.437605   -0.003252 C.ar      1 <1>         0.707800 
      6 N           1.147865    2.389063    0.174709 N.ar      1 <1>        -0.570900 
      7 C           1.673862    1.179731   -0.018918 C.ar      1 <1>         0.726900 
      8 N           3.025387    0.976003    0.127284 N.pl3     1 <1>        -0.783700 
      9 C           4.059392    1.839306    0.467364 C.ar      1 <1>         0.324000 
     10 C           3.941159    3.207245    0.764807 C.ar      1 <1>        -0.158000 
     11 C           5.067852    3.954763    1.092276 C.ar      1 <1>        -0.149000 
     12 C           6.341748    3.366997    1.133988 C.ar      1 <1>         0.133600 
     13 C           7.492855    4.146911    1.472377 C.1       1 <1>         0.230700 
     14 N           8.426833    4.784297    1.747997 N.1       1 <1>        -0.479300 
     15 C           6.478073    1.997897    0.839190 C.ar      1 <1>        -0.214900 
     16 C           5.350136    1.276529    0.517464 C.ar      1 <1>         0.316200 
     17 F           5.463186   -0.044083    0.231027 F         1 <1>        -0.296700 
     18 N           1.005266    0.059739   -0.363024 N.ar      1 <1>        -0.547800 
     19 C          -0.298263    0.258459   -0.506359 C.ar      1 <1>         0.683700 
     20 O          -0.982885   -0.856991   -0.855567 O.3       1 <1>        -0.531900 
     21 C          -2.359441   -0.786072   -1.018161 C.ar      1 <1>         0.359900 
     22 C          -3.178729   -1.057948    0.099356 C.ar      1 <1>        -0.142300 
     23 C          -4.543233   -1.097976   -0.042381 C.ar      1 <1>        -0.207200 
     24 C          -5.150797   -0.871247   -1.305641 C.ar      1 <1>         0.153700 
     25 C          -6.561171   -0.911609   -1.468811 C.ar      1 <1>        -0.196400 
     26 C          -7.140220   -0.693892   -2.697661 C.ar      1 <1>        -0.131000 
     27 C          -6.326320   -0.425313   -3.823044 C.ar      1 <1>        -0.133600 
     28 C          -4.955137   -0.378734   -3.704429 C.ar      1 <1>        -0.195200 
     29 C          -4.326732   -0.598741   -2.449650 C.ar      1 <1>         0.122100 
     30 C          -2.912317   -0.564452   -2.261750 C.ar      1 <1>        -0.185800 
     31 CL         -1.849644   -0.237087   -3.615348 Cl        1 <1>         0.012900 
     32 N          -0.971123    1.392358   -0.346974 N.ar      1 <1>        -0.539000 
     33 H          -4.314365    5.450304   -1.087030 H         1 <1>         0.141700 
     34 H          -4.162596    4.920895   -2.768607 H         1 <1>         0.152700 
     35 H          -4.592496    3.752836   -1.511737 H         1 <1>         0.155200 
     36 H          -1.881058    5.205020   -1.767720 H         1 <1>         0.131100 
     37 H          -2.166332    3.512512   -2.169327 H         1 <1>         0.164400 
     38 H          -2.761443    3.022269    0.201400 H         1 <1>         0.186500 
     39 H          -2.495829    4.716064    0.631338 H         1 <1>         0.144900 
     40 H          -0.149829    4.400249    0.373046 H         1 <1>         0.336300 
     41 H           3.295545    0.017024   -0.054130 H         1 <1>         0.363500 
     42 H           2.961391    3.660802    0.732948 H         1 <1>         0.184000 
     43 H           4.961509    5.010204    1.319638 H         1 <1>         0.159000 
     44 H           7.442993    1.504597    0.859793 H         1 <1>         0.174300 
     45 H          -2.698156   -1.238508    1.055261 H         1 <1>         0.150600 
     46 H          -5.176242   -1.308542    0.815245 H         1 <1>         0.142200 
     47 H          -7.176726   -1.120310   -0.597210 H         1 <1>         0.136200 
     48 H          -8.220470   -0.728231   -2.807172 H         1 <1>         0.136600 
     49 H          -6.787792   -0.254829   -4.791793 H         1 <1>         0.137900 
     50 H          -4.339275   -0.173429   -4.572462 H         1 <1>         0.158100 
@<TRIPOS>BOND
     1   23   46 1    
     2   22   45 1    
     3   25   47 1    
     4   22   23 ar   
     5   23   24 ar   
     6   21   22 ar   
     7    3   39 1    
     8    3   38 1    
     9   24   25 ar   
    10   25   26 ar   
    11   29   24 ar   
    12    3    4 1    
    13    2    3 1    
    14    4   40 1    
    15    4    5 1    
    16   20   21 1    
    17   21   30 ar   
    18    5   32 ar   
    19   32   19 ar   
    20    5    6 ar   
    21   19   20 1    
    22   19   18 ar   
    23    6    7 ar   
    24    7   18 ar   
    25   26   48 1    
    26   10   42 1    
    27    7    8 1    
    28   10   11 ar   
    29    9   10 ar   
    30   11   43 1    
    31    8    9 1    
    32    8   41 1    
    33   26   27 ar   
    34   11   12 ar   
    35    9   16 ar   
    36    1   33 1    
    37    1   35 1    
    38   12   13 1    
    39   15   12 ar   
    40   16   15 ar   
    41   16   17 1    
    42   13   14 3    
    43   15   44 1    
    44   30   29 ar   
    45   29   28 ar   
    46   30   31 1    
    47    1    2 1    
    48    1   34 1    
    49    2   36 1    
    50    2   37 1    
    51   27   28 ar   
    52   27   49 1    
    53   28   50 1    
@<TRIPOS>SUBSTRUCTURE
     1 ****       33 TEMP              0 ****  ****    0 ROOT 
