#	Name:			XYZ-2008-EJMC-1230-9P
#	Creating user name:	Administrator
#	Creation time:		Sun Jul 05 17:12:38 2020

#	Modifying user name:	Administrator
#	Modification time:	Sun Jul 05 17:12:51 2020

@<TRIPOS>MOLECULE
XYZ-2008-EJMC-1230-9P
   41    44     1     0     0
SMALL
MULLIKEN_CHARGES
INVALID_CHARGES
Gaussian 16 #p B3LYP/6-31G* opt
@<TRIPOS>ATOM
      1 N           0.818813   10.003723    1.846611 N.1       1 <1>        -0.483100 
      2 C           0.550486    8.907457    1.561769 C.1       1 <1>         0.228300 
      3 C           0.220097    7.559707    1.211692 C.ar      1 <1>         0.132500 
      4 C          -1.108199    7.203693    0.919059 C.ar      1 <1>        -0.140200 
      5 C          -1.419736    5.897033    0.581294 C.ar      1 <1>        -0.204500 
      6 C          -0.419916    4.905774    0.524454 C.ar      1 <1>         0.381800 
      7 N          -0.834571    3.617406    0.177958 N.pl3     1 <1>        -0.778700 
      8 C          -0.153158    2.437776    0.008264 C.ar      1 <1>         0.722500 
      9 N           1.168020    2.379791    0.172923 N.ar      1 <1>        -0.550500 
     10 C           1.687177    1.149433   -0.030893 C.ar      1 <1>         0.670600 
     11 N           3.020226    1.009999    0.143906 N.3       1 <1>        -0.770000 
     12 N           1.000414    0.046749   -0.375750 N.ar      1 <1>        -0.517600 
     13 C          -0.303627    0.263906   -0.505932 C.ar      1 <1>         0.684700 
     14 O          -1.004862   -0.840064   -0.855871 O.3       1 <1>        -0.531100 
     15 C          -2.381438   -0.750546   -1.012654 C.ar      1 <1>         0.358300 
     16 C          -3.200411   -1.000061    0.110129 C.ar      1 <1>        -0.142000 
     17 C          -4.565734   -1.020706   -0.026973 C.ar      1 <1>        -0.207100 
     18 C          -5.174245   -0.795756   -1.290153 C.ar      1 <1>         0.154000 
     19 C          -6.585594   -0.815288   -1.448027 C.ar      1 <1>        -0.196300 
     20 C          -7.165428   -0.598919   -2.676616 C.ar      1 <1>        -0.130800 
     21 C          -6.351546   -0.352864   -3.807179 C.ar      1 <1>        -0.133500 
     22 C          -4.979327   -0.327061   -3.693730 C.ar      1 <1>        -0.194800 
     23 C          -4.350155   -0.546148   -2.439314 C.ar      1 <1>         0.122400 
     24 C          -2.934740   -0.532018   -2.256562 C.ar      1 <1>        -0.186200 
     25 CL         -1.871676   -0.235189   -3.616614 Cl        1 <1>         0.013400 
     26 N          -0.957302    1.405425   -0.330217 N.ar      1 <1>        -0.554700 
     27 C           0.909515    5.259237    0.816963 C.ar      1 <1>        -0.154200 
     28 C           1.216396    6.571451    1.155056 C.ar      1 <1>        -0.152900 
     29 H          -1.889065    7.956249    0.958286 H         1 <1>         0.159800 
     30 H          -2.450401    5.633018    0.356187 H         1 <1>         0.140900 
     31 H          -1.825038    3.499818    0.003027 H         1 <1>         0.352300 
     32 H           3.451010    0.137530   -0.120922 H         1 <1>         0.356400 
     33 H           3.588539    1.832443    0.271621 H         1 <1>         0.350300 
     34 H          -2.719454   -1.179093    1.066049 H         1 <1>         0.150300 
     35 H          -5.199031   -1.213847    0.834641 H         1 <1>         0.142200 
     36 H          -7.201194   -1.006404   -0.572432 H         1 <1>         0.136100 
     37 H          -8.246509   -0.616822   -2.782140 H         1 <1>         0.136700 
     38 H          -6.813867   -0.182912   -4.775634 H         1 <1>         0.138100 
     39 H          -4.363467   -0.138278   -4.565438 H         1 <1>         0.158300 
     40 H           1.679671    4.503189    0.774337 H         1 <1>         0.180500 
     41 H           2.244042    6.838470    1.380168 H         1 <1>         0.157600 
@<TRIPOS>BOND
     1   22   39 1    
     2   24   25 1    
     3   21   38 1    
     4   22   21 ar   
     5   23   22 ar   
     6   21   20 ar   
     7   24   23 ar   
     8   15   24 ar   
     9   23   18 ar   
    10    2    1 3    
    11   11   33 1    
    12   28   41 1    
    13    3    2 1    
    14   28    3 ar   
    15   27   28 ar   
    16   11   32 1    
    17    4    3 ar   
    18   27   40 1    
    19    6   27 ar   
    20   10   11 1    
    21    4   29 1    
    22    5    4 ar   
    23   10    9 ar   
    24    8    9 ar   
    25   12   10 ar   
    26    6    5 ar   
    27    7    6 1    
    28   20   37 1    
    29   20   19 ar   
    30    5   30 1    
    31    8    7 1    
    32   26    8 ar   
    33    7   31 1    
    34   13   12 ar   
    35   13   26 ar   
    36   14   13 1    
    37   14   15 1    
    38   15   16 ar   
    39   18   19 ar   
    40   18   17 ar   
    41   19   36 1    
    42   16   17 ar   
    43   16   34 1    
    44   17   35 1    
@<TRIPOS>SUBSTRUCTURE
     1 ****       33 TEMP              0 ****  ****    0 ROOT 
