#	Name:			XYZ-2009-CB-561-8D
#	Creating user name:	Administrator
#	Creation time:		Sun Jul 05 17:12:40 2020

#	Modifying user name:	Administrator
#	Modification time:	Sun Jul 05 17:12:51 2020

@<TRIPOS>MOLECULE
XYZ-2009-CB-561-8D
   48    51     1     0     0
SMALL
MULLIKEN_CHARGES
INVALID_CHARGES
Gaussian 16 #p B3LYP/6-31G* opt
@<TRIPOS>ATOM
      1 C          -1.031512    7.110445   -0.230776 C.2       1 <1>        -0.337300 
      2 C          -0.435995    5.949817   -0.504308 C.2       1 <1>        -0.053000 
      3 C          -0.144127    4.886981    0.522575 C.3       1 <1>        -0.177500 
      4 N          -0.787121    3.622331    0.186250 N.3       1 <1>        -0.634800 
      5 C          -0.162928    2.436899    0.005296 C.ar      1 <1>         0.704500 
      6 N           1.165293    2.362725    0.175334 N.ar      1 <1>        -0.578300 
      7 C           1.674323    1.135984   -0.028863 C.ar      1 <1>         0.729600 
      8 N           3.034893    1.064185    0.144705 N.pl3     1 <1>        -0.782300 
      9 C           3.922203   -0.001569    0.028666 C.ar      1 <1>         0.321000 
     10 C           3.598417   -1.325320   -0.313785 C.ar      1 <1>        -0.163400 
     11 C           4.596861   -2.291305   -0.392214 C.ar      1 <1>        -0.150400 
     12 C           5.939264   -1.972282   -0.133876 C.ar      1 <1>         0.133700 
     13 C           6.956882   -2.975035   -0.218084 C.1       1 <1>         0.231200 
     14 N           7.783827   -3.791212   -0.286832 N.1       1 <1>        -0.479600 
     15 C           6.279466   -0.651196    0.210424 C.ar      1 <1>        -0.215000 
     16 C           5.276581    0.289513    0.282501 C.ar      1 <1>         0.313200 
     17 F           5.585764    1.569351    0.613146 F         1 <1>        -0.300200 
     18 N           0.991779    0.037846   -0.368812 N.ar      1 <1>        -0.546600 
     19 C          -0.321303    0.258410   -0.505566 C.ar      1 <1>         0.678000 
     20 O          -1.005473   -0.847907   -0.862045 O.3       1 <1>        -0.536900 
     21 C          -2.397861   -0.803403   -0.981334 C.ar      1 <1>         0.354600 
     22 C          -3.200585   -0.685560    0.176915 C.ar      1 <1>        -0.134600 
     23 C          -4.567959   -0.749809    0.055194 C.ar      1 <1>        -0.209900 
     24 C          -5.187435   -0.937234   -1.211073 C.ar      1 <1>         0.147100 
     25 C          -6.597552   -1.008364   -1.363009 C.ar      1 <1>        -0.193900 
     26 C          -7.165244   -1.195043   -2.603585 C.ar      1 <1>        -0.134500 
     27 C          -6.344962   -1.320437   -3.751322 C.ar      1 <1>        -0.136000 
     28 C          -4.974086   -1.257329   -3.638099 C.ar      1 <1>        -0.189200 
     29 C          -4.357701   -1.064240   -2.372815 C.ar      1 <1>         0.127500 
     30 C          -2.946545   -0.992737   -2.223719 C.ar      1 <1>        -0.235300 
     31 N          -0.967147    1.399948   -0.341910 N.ar      1 <1>        -0.541700 
     32 H          -1.212563    7.856642   -0.999244 H         1 <1>         0.151800 
     33 H          -1.353011    7.363575    0.777795 H         1 <1>         0.143400 
     34 H          -0.128779    5.717039   -1.523772 H         1 <1>         0.142700 
     35 H          -0.472590    5.221456    1.515801 H         1 <1>         0.155900 
     36 H           0.928173    4.680575    0.580066 H         1 <1>         0.199700 
     37 H          -1.784297    3.609192    0.018171 H         1 <1>         0.343800 
     38 H           3.449177    1.950881    0.402078 H         1 <1>         0.356700 
     39 H           2.565742   -1.574071   -0.513062 H         1 <1>         0.207600 
     40 H           4.333160   -3.309562   -0.657630 H         1 <1>         0.163100 
     41 H           7.303417   -0.362314    0.417744 H         1 <1>         0.172800 
     42 H          -2.725480   -0.548490    1.142199 H         1 <1>         0.142500 
     43 H          -5.196280   -0.661398    0.938072 H         1 <1>         0.136400 
     44 H          -7.223956   -0.913030   -0.479174 H         1 <1>         0.131500 
     45 H          -8.245655   -1.247723   -2.706531 H         1 <1>         0.132200 
     46 H          -6.803473   -1.468074   -4.725381 H         1 <1>         0.133000 
     47 H          -4.343212   -1.354378   -4.518425 H         1 <1>         0.133500 
     48 H          -2.298414   -1.093562   -3.089074 H         1 <1>         0.143400 
@<TRIPOS>BOND
     1   23   43 1    
     2   22   42 1    
     3   25   44 1    
     4   22   23 ar   
     5   23   24 ar   
     6   21   22 ar   
     7    3   35 1    
     8   24   25 ar   
     9   25   26 ar   
    10   29   24 ar   
    11   20   21 1    
    12   21   30 ar   
    13    4   37 1    
    14    3    4 1    
    15    4    5 1    
    16    5   31 ar   
    17   31   19 ar   
    18    3   36 1    
    19    2    3 1    
    20    5    6 ar   
    21    1   33 1    
    22   19   20 1    
    23   19   18 ar   
    24    6    7 ar   
    25    7   18 ar   
    26    7    8 1    
    27    8   38 1    
    28    8    9 1    
    29   10   39 1    
    30    9   10 ar   
    31    9   16 ar   
    32   10   11 ar   
    33   16   17 1    
    34   16   15 ar   
    35   11   40 1    
    36   11   12 ar   
    37   15   12 ar   
    38   15   41 1    
    39   12   13 1    
    40   26   45 1    
    41   13   14 3    
    42   26   27 ar   
    43   30   29 ar   
    44   29   28 ar   
    45   30   48 1    
    46    1    2 2    
    47    1   32 1    
    48    2   34 1    
    49   27   28 ar   
    50   27   46 1    
    51   28   47 1    
@<TRIPOS>SUBSTRUCTURE
     1 ****       33 TEMP              0 ****  ****    0 ROOT 
