#	Name:			XYZ-2008-EJMC-1230-9M
#	Creating user name:	Administrator
#	Creation time:		Sun Jul 05 17:12:38 2020

#	Modifying user name:	Administrator
#	Modification time:	Sun Jul 05 17:12:51 2020

@<TRIPOS>MOLECULE
XYZ-2008-EJMC-1230-9M
   44    47     1     0     0
SMALL
MULLIKEN_CHARGES
INVALID_CHARGES
Gaussian 16 #p B3LYP/6-31G* opt
@<TRIPOS>ATOM
      1 C          -0.137024    4.847201    0.584328 C.3       1 <1>        -0.293000 
      2 N          -0.803881    3.622425    0.183386 N.3       1 <1>        -0.623100 
      3 C          -0.182289    2.439316    0.004276 C.ar      1 <1>         0.700200 
      4 N           1.152108    2.389989    0.184711 N.ar      1 <1>        -0.563900 
      5 C           1.678279    1.178025   -0.018799 C.ar      1 <1>         0.719900 
      6 N           3.028472    0.968991    0.121788 N.pl3     1 <1>        -0.778100 
      7 C           4.086610    1.813649    0.464069 C.ar      1 <1>         0.381500 
      8 C           3.946338    3.180799    0.762994 C.ar      1 <1>        -0.159600 
      9 C           5.066276    3.934087    1.092269 C.ar      1 <1>        -0.155200 
     10 C           6.345439    3.355591    1.133781 C.ar      1 <1>         0.132700 
     11 C           7.490058    4.144116    1.474442 C.1       1 <1>         0.228100 
     12 N           8.420892    4.785931    1.751310 N.1       1 <1>        -0.483300 
     13 C           6.483183    1.988600    0.835245 C.ar      1 <1>        -0.140600 
     14 C           5.370066    1.232837    0.506098 C.ar      1 <1>        -0.203600 
     15 N           1.004674    0.063393   -0.365748 N.ar      1 <1>        -0.550100 
     16 C          -0.300746    0.264469   -0.502378 C.ar      1 <1>         0.688300 
     17 O          -0.985089   -0.853566   -0.854953 O.3       1 <1>        -0.535900 
     18 C          -2.363590   -0.790594   -0.989518 C.ar      1 <1>         0.332300 
     19 C          -2.887360   -0.703679   -2.297767 C.ar      1 <1>        -0.150100 
     20 C          -4.244185   -0.737425   -2.501758 C.ar      1 <1>        -0.200900 
     21 C          -5.138451   -0.859499   -1.405897 C.ar      1 <1>         0.154500 
     22 C          -6.544049   -0.893584   -1.606007 C.ar      1 <1>        -0.226100 
     23 C          -7.390122   -1.014511   -0.531841 C.ar      1 <1>         0.083700 
     24 BR         -9.280682   -1.057760   -0.805947 Br        1 <1>        -0.122800 
     25 C          -6.891947   -1.108251    0.786703 C.ar      1 <1>        -0.150900 
     26 C          -5.534061   -1.078252    1.005230 C.ar      1 <1>        -0.188100 
     27 C          -4.616396   -0.953683   -0.071785 C.ar      1 <1>         0.094100 
     28 C          -3.202028   -0.918544    0.097239 C.ar      1 <1>        -0.000500 
     29 BR         -2.428979   -1.045015    1.832026 Br        1 <1>        -0.098100 
     30 N          -0.969211    1.397380   -0.347895 N.ar      1 <1>        -0.541600 
     31 H           0.634952    5.130515   -0.138918 H         1 <1>         0.178900 
     32 H          -0.882707    5.643375    0.632920 H         1 <1>         0.161700 
     33 H           0.334240    4.743251    1.568166 H         1 <1>         0.177200 
     34 H          -1.805801    3.604379    0.063165 H         1 <1>         0.347900 
     35 H           3.270397    0.002960   -0.062127 H         1 <1>         0.352700 
     36 H           2.964927    3.630547    0.733233 H         1 <1>         0.189100 
     37 H           4.951910    4.988772    1.322154 H         1 <1>         0.156400 
     38 H           7.464758    1.526959    0.863195 H         1 <1>         0.160000 
     39 H           5.488383    0.176506    0.276885 H         1 <1>         0.141400 
     40 H          -2.188842   -0.616870   -3.123530 H         1 <1>         0.155200 
     41 H          -4.649642   -0.671758   -3.507380 H         1 <1>         0.147200 
     42 H          -6.938319   -0.823273   -2.614503 H         1 <1>         0.157500 
     43 H          -7.582923   -1.203499    1.616859 H         1 <1>         0.159500 
     44 H          -5.149507   -1.149768    2.016129 H         1 <1>         0.165600 
@<TRIPOS>BOND
     1   19   40 1    
     2   20   41 1    
     3   19   20 ar   
     4   18   19 ar   
     5   20   21 ar   
     6   22   42 1    
     7   17   18 1    
     8   16   17 1    
     9   18   28 ar   
    10   21   22 ar   
    11   27   21 ar   
    12   22   23 ar   
    13    6   35 1    
    14   14   39 1    
    15   16   15 ar   
    16    5   15 ar   
    17   30   16 ar   
    18    5    6 1    
    19    6    7 1    
    20    7   14 ar   
    21   14   13 ar   
    22    4    5 ar   
    23   13   38 1    
    24    3   30 ar   
    25    7    8 ar   
    26   13   10 ar   
    27    3    4 ar   
    28    2    3 1    
    29   28   27 ar   
    30   28   29 1    
    31   23   24 1    
    32   23   25 ar   
    33    1   31 1    
    34   27   26 ar   
    35    8   36 1    
    36    8    9 ar   
    37    9   10 ar   
    38   10   11 1    
    39    2   34 1    
    40    2    1 1    
    41    9   37 1    
    42   11   12 3    
    43    1   32 1    
    44    1   33 1    
    45   25   26 ar   
    46   25   43 1    
    47   26   44 1    
@<TRIPOS>SUBSTRUCTURE
     1 ****       39 TEMP              0 ****  ****    0 ROOT 
