#	Name:			XYZ-2008-EJMC-1230-9K
#	Creating user name:	Administrator
#	Creation time:		Sun Jul 05 17:12:38 2020

#	Modifying user name:	Administrator
#	Modification time:	Sun Jul 05 17:12:51 2020

@<TRIPOS>MOLECULE
XYZ-2008-EJMC-1230-9K
   47    50     1     0     0
SMALL
MULLIKEN_CHARGES
INVALID_CHARGES
Gaussian 16 #p B3LYP/6-31G* opt
@<TRIPOS>ATOM
      1 C          -1.167848    5.981857    0.729423 C.3       1 <1>        -0.483500 
      2 C          -0.138506    4.876005    0.513628 C.3       1 <1>        -0.089200 
      3 N          -0.805087    3.622102    0.186336 N.3       1 <1>        -0.644500 
      4 C          -0.181958    2.440798    0.002363 C.ar      1 <1>         0.710600 
      5 N           1.153922    2.392016    0.176379 N.ar      1 <1>        -0.567300 
      6 C           1.677731    1.177713   -0.019073 C.ar      1 <1>         0.720300 
      7 N           3.028183    0.967761    0.125493 N.pl3     1 <1>        -0.778300 
      8 C           4.087059    1.813248    0.460545 C.ar      1 <1>         0.381600 
      9 C           5.367547    1.227602    0.525384 C.ar      1 <1>        -0.203500 
     10 C           6.481442    1.984419    0.849154 C.ar      1 <1>        -0.140800 
     11 C           6.347972    3.357718    1.119744 C.ar      1 <1>         0.132400 
     12 C           7.493097    4.147116    1.455887 C.1       1 <1>         0.227600 
     13 N           8.424310    4.789884    1.729882 N.1       1 <1>        -0.484300 
     14 C           5.072061    3.941471    1.054356 C.ar      1 <1>        -0.155700 
     15 C           3.951464    3.187309    0.729890 C.ar      1 <1>        -0.160000 
     16 N           1.004777    0.062454   -0.362451 N.ar      1 <1>        -0.550300 
     17 C          -0.301286    0.264215   -0.505914 C.ar      1 <1>         0.687000 
     18 O          -0.983997   -0.852693   -0.857347 O.3       1 <1>        -0.533800 
     19 C          -2.359394   -0.781739   -1.026585 C.ar      1 <1>         0.360900 
     20 C          -3.187257   -1.005918    0.095217 C.ar      1 <1>        -0.140100 
     21 C          -4.550715   -1.045516   -0.053901 C.ar      1 <1>        -0.207100 
     22 C          -5.149394   -0.865842   -1.329046 C.ar      1 <1>         0.154300 
     23 C          -6.558761   -0.906065   -1.499744 C.ar      1 <1>        -0.196400 
     24 C          -7.128963   -0.733791   -2.739790 C.ar      1 <1>        -0.131000 
     25 C          -6.306692   -0.513221   -3.869528 C.ar      1 <1>        -0.133700 
     26 C          -4.935987   -0.468531   -3.743662 C.ar      1 <1>        -0.194800 
     27 C          -4.316859   -0.642102   -2.477293 C.ar      1 <1>         0.122700 
     28 C          -2.903419   -0.606631   -2.281444 C.ar      1 <1>        -0.187100 
     29 CL         -1.830728   -0.338324   -3.640084 Cl        1 <1>         0.012500 
     30 N          -0.969968    1.396057   -0.341397 N.ar      1 <1>        -0.544800 
     31 H          -0.664370    6.921577    0.975303 H         1 <1>         0.166600 
     32 H          -1.766494    6.149666   -0.173758 H         1 <1>         0.158400 
     33 H          -1.846870    5.735768    1.553651 H         1 <1>         0.161500 
     34 H           0.465503    4.733445    1.417161 H         1 <1>         0.168500 
     35 H           0.554868    5.150425   -0.292367 H         1 <1>         0.163100 
     36 H          -1.798317    3.618701   -0.000196 H         1 <1>         0.343400 
     37 H           3.269222    0.001121   -0.056735 H         1 <1>         0.352400 
     38 H           5.482582    0.166338    0.318303 H         1 <1>         0.141000 
     39 H           7.460400    1.518638    0.894984 H         1 <1>         0.159300 
     40 H           4.961188    5.001330    1.260906 H         1 <1>         0.155500 
     41 H           2.972826    3.641451    0.679762 H         1 <1>         0.190400 
     42 H          -2.714096   -1.150105    1.060855 H         1 <1>         0.149000 
     43 H          -5.190413   -1.219211    0.807240 H         1 <1>         0.141000 
     44 H          -7.180827   -1.077388   -0.624594 H         1 <1>         0.135300 
     45 H          -8.208692   -0.767220   -2.854996 H         1 <1>         0.135800 
     46 H          -6.761077   -0.378214   -4.847092 H         1 <1>         0.137200 
     47 H          -4.313544   -0.299457   -4.614857 H         1 <1>         0.157800 
@<TRIPOS>BOND
     1   26   47 1    
     2   25   46 1    
     3   28   29 1    
     4   26   25 ar   
     5   27   26 ar   
     6   25   24 ar   
     7    2   35 1    
     8    1   32 1    
     9    1   31 1    
    10   12   13 3    
    11   14   40 1    
    12   28   27 ar   
    13   19   28 ar   
    14   27   22 ar   
    15    2    1 1    
    16    1   33 1    
    17   11   12 1    
    18    3    2 1    
    19    2   34 1    
    20   14   11 ar   
    21   15   14 ar   
    22   10   11 ar   
    23   15   41 1    
    24   24   45 1    
    25   24   23 ar   
    26    8   15 ar   
    27    3   36 1    
    28    4    3 1    
    29   10   39 1    
    30    9   10 ar   
    31    4    5 ar   
    32    6    5 ar   
    33   30    4 ar   
    34    8    9 ar   
    35    7    8 1    
    36    9   38 1    
    37    6    7 1    
    38   16    6 ar   
    39    7   37 1    
    40   17   30 ar   
    41   17   16 ar   
    42   18   17 1    
    43   18   19 1    
    44   19   20 ar   
    45   22   23 ar   
    46   22   21 ar   
    47   23   44 1    
    48   20   21 ar   
    49   20   42 1    
    50   21   43 1    
@<TRIPOS>SUBSTRUCTURE
     1 ****       32 TEMP              0 ****  ****    0 ROOT 
