#	Name:			XYZ-2008-EJMC-1230-9H
#	Creating user name:	Administrator
#	Creation time:		Sun Jul 05 17:12:38 2020

#	Modifying user name:	Administrator
#	Modification time:	Sun Jul 05 17:12:51 2020

@<TRIPOS>MOLECULE
XYZ-2008-EJMC-1230-9H
   44    47     1     0     0
SMALL
MULLIKEN_CHARGES
INVALID_CHARGES
Gaussian 16 #p B3LYP/6-31G* opt
@<TRIPOS>ATOM
      1 C          -2.223334    3.839255    0.073966 C.3       1 <1>        -0.289600 
      2 N          -0.791521    3.625835    0.199496 N.3       1 <1>        -0.626200 
      3 C          -0.190480    2.436314   -0.002595 C.ar      1 <1>         0.700900 
      4 N           1.149355    2.390155    0.179394 N.ar      1 <1>        -0.566700 
      5 C           1.676501    1.182488   -0.018137 C.ar      1 <1>         0.721000 
      6 N           3.027645    0.971500    0.121964 N.pl3     1 <1>        -0.778300 
      7 C           4.085919    1.817099    0.457743 C.ar      1 <1>         0.382400 
      8 C           5.368536    1.234887    0.511418 C.ar      1 <1>        -0.204300 
      9 C           6.481860    1.992912    0.834332 C.ar      1 <1>        -0.140500 
     10 C           6.345809    3.363954    1.114970 C.ar      1 <1>         0.131800 
     11 C           7.490652    4.154620    1.449072 C.1       1 <1>         0.227500 
     12 N           8.422077    4.798171    1.720570 N.1       1 <1>        -0.484300 
     13 C           5.067664    3.944043    1.061787 C.ar      1 <1>        -0.153200 
     14 C           3.947567    3.188543    0.738467 C.ar      1 <1>        -0.154500 
     15 N           1.003146    0.061621   -0.359074 N.ar      1 <1>        -0.551200 
     16 C          -0.298871    0.260609   -0.504244 C.ar      1 <1>         0.687500 
     17 O          -0.984001   -0.856671   -0.850216 O.3       1 <1>        -0.534500 
     18 C          -2.360408   -0.791895   -1.019524 C.ar      1 <1>         0.328900 
     19 C          -2.845380   -0.787195   -2.345520 C.ar      1 <1>        -0.151800 
     20 C          -4.196496   -0.825176   -2.583970 C.ar      1 <1>        -0.203800 
     21 C          -5.124015   -0.869350   -1.510485 C.ar      1 <1>         0.153800 
     22 C          -6.524912   -0.907876   -1.741933 C.ar      1 <1>        -0.197000 
     23 C          -7.416676   -0.953123   -0.695597 C.ar      1 <1>        -0.130800 
     24 C          -6.939741   -0.962294    0.636314 C.ar      1 <1>        -0.133700 
     25 C          -5.588967   -0.926533    0.899818 C.ar      1 <1>        -0.188500 
     26 C          -4.641245   -0.879433   -0.157386 C.ar      1 <1>         0.086700 
     27 C          -3.230631   -0.843478    0.047987 C.ar      1 <1>         0.001000 
     28 BR         -2.508736   -0.860659    1.810897 Br        1 <1>        -0.105700 
     29 N          -0.969457    1.398572   -0.362201 N.ar      1 <1>        -0.534700 
     30 H          -2.453714    4.843556    0.435923 H         1 <1>         0.155900 
     31 H          -2.554196    3.750481   -0.967051 H         1 <1>         0.174700 
     32 H          -2.774620    3.105744    0.669127 H         1 <1>         0.190500 
     33 H          -0.183351    4.388479    0.457046 H         1 <1>         0.341800 
     34 H           3.267179    0.003479   -0.054672 H         1 <1>         0.352100 
     35 H           5.485667    0.175385    0.296369 H         1 <1>         0.140700 
     36 H           7.462559    1.529940    0.871579 H         1 <1>         0.159100 
     37 H           4.954331    5.001756    1.277482 H         1 <1>         0.156100 
     38 H           2.966904    3.639395    0.699533 H         1 <1>         0.178200 
     39 H          -2.122537   -0.759881   -3.154345 H         1 <1>         0.151600 
     40 H          -4.572385   -0.822809   -3.603502 H         1 <1>         0.141800 
     41 H          -6.879140   -0.901192   -2.769847 H         1 <1>         0.135800 
     42 H          -8.485387   -0.982350   -0.888105 H         1 <1>         0.136100 
     43 H          -7.646865   -0.998398    1.460480 H         1 <1>         0.137300 
     44 H          -5.229694   -0.933948    1.922518 H         1 <1>         0.156300 
@<TRIPOS>BOND
     1   25   44 1    
     2   24   43 1    
     3   27   28 1    
     4   25   24 ar   
     5   26   25 ar   
     6   24   23 ar   
     7    1   32 1    
     8    1   30 1    
     9   13   37 1    
    10    2   33 1    
    11   11   12 3    
    12    2    1 1    
    13    1   31 1    
    14    3    2 1    
    15   10   11 1    
    16   13   10 ar   
    17   14   13 ar   
    18   14   38 1    
    19    9   10 ar   
    20    7   14 ar   
    21   27   26 ar   
    22   26   21 ar   
    23   18   27 ar   
    24   23   42 1    
    25   23   22 ar   
    26    3    4 ar   
    27   29    3 ar   
    28    5    4 ar   
    29    9   36 1    
    30    8    9 ar   
    31    7    8 ar   
    32    6    7 1    
    33   16   29 ar   
    34    5    6 1    
    35   15    5 ar   
    36    8   35 1    
    37    6   34 1    
    38   16   15 ar   
    39   17   16 1    
    40   18   17 1    
    41   18   19 ar   
    42   21   22 ar   
    43   21   20 ar   
    44   22   41 1    
    45   19   20 ar   
    46   19   39 1    
    47   20   40 1    
@<TRIPOS>SUBSTRUCTURE
     1 ****       44 TEMP              0 ****  ****    0 ROOT 
