#	Name:			XYZ-2008-EJMC-1230-9I
#	Creating user name:	Administrator
#	Creation time:		Sun Jul 05 17:12:38 2020

#	Modifying user name:	Administrator
#	Modification time:	Sun Jul 05 17:12:51 2020

@<TRIPOS>MOLECULE
XYZ-2008-EJMC-1230-9I
   41    44     1     0     0
SMALL
MULLIKEN_CHARGES
INVALID_CHARGES
Gaussian 16 #p B3LYP/6-31G* opt
@<TRIPOS>ATOM
      1 N           8.411362    4.797316    1.761074 N.1       1 <1>        -0.483600 
      2 C           7.481764    4.154143    1.483138 C.1       1 <1>         0.228000 
      3 C           6.338669    3.363752    1.141578 C.ar      1 <1>         0.132200 
      4 C           6.479792    1.998073    0.838471 C.ar      1 <1>        -0.140300 
      5 C           5.368340    1.240339    0.508462 C.ar      1 <1>        -0.204300 
      6 C           4.083298    1.817624    0.470093 C.ar      1 <1>         0.381900 
      7 N           3.026651    0.970493    0.128878 N.pl3     1 <1>        -0.777400 
      8 C           1.677463    1.179429   -0.018170 C.ar      1 <1>         0.719100 
      9 N           1.150311    2.392153    0.171503 N.ar      1 <1>        -0.549900 
     10 C          -0.184758    2.435673   -0.004473 C.ar      1 <1>         0.670700 
     11 N          -0.796987    3.624524    0.195810 N.3       1 <1>        -0.769700 
     12 N          -0.970574    1.396970   -0.344840 N.ar      1 <1>        -0.522400 
     13 C          -0.299552    0.262187   -0.508117 C.ar      1 <1>         0.687400 
     14 O          -0.984037   -0.853872   -0.853755 O.3       1 <1>        -0.533900 
     15 C          -2.352296   -0.772959   -1.078354 C.ar      1 <1>         0.329000 
     16 C          -3.207877   -1.212949   -0.045484 C.ar      1 <1>        -0.149700 
     17 C          -4.564924   -1.250597   -0.248038 C.ar      1 <1>        -0.204000 
     18 C          -5.127502   -0.851526   -1.488686 C.ar      1 <1>         0.154100 
     19 C          -6.529846   -0.885498   -1.712179 C.ar      1 <1>        -0.197100 
     20 C          -7.066193   -0.499531   -2.918475 C.ar      1 <1>        -0.130600 
     21 C          -6.215179   -0.060424   -3.959804 C.ar      1 <1>        -0.133700 
     22 C          -4.850962   -0.014350   -3.780645 C.ar      1 <1>        -0.187800 
     23 C          -4.264678   -0.405962   -2.547493 C.ar      1 <1>         0.087000 
     24 C          -2.860932   -0.384486   -2.298535 C.ar      1 <1>        -0.000900 
     25 BR         -1.643890    0.185935   -3.648927 Br        1 <1>        -0.105300 
     26 N           1.003799    0.062864   -0.362447 N.ar      1 <1>        -0.548100 
     27 C           3.939700    3.183578    0.773334 C.ar      1 <1>        -0.154300 
     28 C           5.057935    3.938921    1.103456 C.ar      1 <1>        -0.153000 
     29 H           7.462804    1.539092    0.863496 H         1 <1>         0.159700 
     30 H           5.489325    0.185072    0.275485 H         1 <1>         0.141300 
     31 H           3.270479    0.005489   -0.057939 H         1 <1>         0.352900 
     32 H          -0.232467    4.451447    0.312710 H         1 <1>         0.350400 
     33 H          -1.766922    3.714732   -0.065240 H         1 <1>         0.355700 
     34 H          -2.761183   -1.520415    0.894334 H         1 <1>         0.151600 
     35 H          -5.227001   -1.589444    0.544198 H         1 <1>         0.142200 
     36 H          -7.173641   -1.225336   -0.904576 H         1 <1>         0.136000 
     37 H          -8.140869   -0.530854   -3.074738 H         1 <1>         0.136200 
     38 H          -6.642376    0.243497   -4.911400 H         1 <1>         0.137400 
     39 H          -4.203725    0.322993   -4.582202 H         1 <1>         0.156500 
     40 H           2.957139    3.631119    0.745460 H         1 <1>         0.179500 
     41 H           4.940839    4.992506    1.336815 H         1 <1>         0.156900 
@<TRIPOS>BOND
     1    5   30 1    
     2    7   31 1    
     3   16   34 1    
     4    4   29 1    
     5   14   15 1    
     6   13   14 1    
     7    5    4 ar   
     8    6    5 ar   
     9   16   17 ar   
    10   15   16 ar   
    11   17   35 1    
    12   26   13 ar   
    13    8   26 ar   
    14    4    3 ar   
    15   17   18 ar   
    16   15   24 ar   
    17    7    6 1    
    18    7    8 1    
    19   13   12 ar   
    20    6   27 ar   
    21    8    9 ar   
    22   24   23 ar   
    23   24   25 1    
    24   18   23 ar   
    25   18   19 ar   
    26   19   36 1    
    27   23   22 ar   
    28   19   20 ar   
    29    3    2 1    
    30    3   28 ar   
    31   12   10 ar   
    32    2    1 3    
    33   27   28 ar   
    34   27   40 1    
    35   20   37 1    
    36   20   21 ar   
    37   22   39 1    
    38   22   21 ar   
    39    9   10 ar   
    40   28   41 1    
    41   21   38 1    
    42   10   11 1    
    43   11   33 1    
    44   11   32 1    
@<TRIPOS>SUBSTRUCTURE
     1 ****       31 TEMP              0 ****  ****    0 ROOT 
