#	Name:			XYZ-2009-CB-561-8H
#	Creating user name:	Administrator
#	Creation time:		Sun Jul 05 17:12:40 2020

#	Modifying user name:	Administrator
#	Modification time:	Sun Jul 05 17:12:51 2020

@<TRIPOS>MOLECULE
XYZ-2009-CB-561-8H
   48    51     1     0     0
SMALL
MULLIKEN_CHARGES
INVALID_CHARGES
Gaussian 16 #p B3LYP/6-31G* opt
@<TRIPOS>ATOM
      1 C          -3.454789    4.214970    2.404285 C.2       1 <1>        -0.341700 
      2 C          -2.831842    3.387766    1.565444 C.2       1 <1>        -0.053400 
      3 C          -2.215950    3.824650    0.258344 C.3       1 <1>        -0.185600 
      4 N          -0.764758    3.629482    0.207914 N.3       1 <1>        -0.623600 
      5 C          -0.174764    2.430077    0.000242 C.ar      1 <1>         0.699500 
      6 N           1.155426    2.359714    0.185946 N.ar      1 <1>        -0.574400 
      7 C           1.671885    1.141501   -0.028116 C.ar      1 <1>         0.728600 
      8 N           3.033102    1.072990    0.139318 N.pl3     1 <1>        -0.783200 
      9 C           3.923654    0.010030    0.023451 C.ar      1 <1>         0.321200 
     10 C           3.602930   -1.317820   -0.305614 C.ar      1 <1>        -0.163000 
     11 C           4.604859   -2.280124   -0.385321 C.ar      1 <1>        -0.150300 
     12 C           5.948137   -1.953262   -0.141647 C.ar      1 <1>         0.133600 
     13 C           6.969276   -2.952129   -0.227664 C.1       1 <1>         0.231100 
     14 N           7.799256   -3.765134   -0.298232 N.1       1 <1>        -0.479800 
     15 C           6.285310   -0.628189    0.189714 C.ar      1 <1>        -0.215000 
     16 C           5.278952    0.308770    0.263402 C.ar      1 <1>         0.313600 
     17 F           5.585510    1.592108    0.582248 F         1 <1>        -0.299800 
     18 N           0.990800    0.036061   -0.366040 N.ar      1 <1>        -0.545900 
     19 C          -0.313879    0.257506   -0.513441 C.ar      1 <1>         0.685000 
     20 O          -1.011478   -0.857548   -0.840294 O.3       1 <1>        -0.535100 
     21 C          -2.393169   -0.793019   -0.964040 C.ar      1 <1>         0.326200 
     22 C          -2.920600   -0.899624   -2.269344 C.ar      1 <1>        -0.154700 
     23 C          -4.279178   -0.942319   -2.461179 C.ar      1 <1>        -0.202600 
     24 C          -5.172781   -0.876925   -1.360517 C.ar      1 <1>         0.153500 
     25 C          -6.580875   -0.915723   -1.543340 C.ar      1 <1>        -0.196200 
     26 C          -7.438113   -0.852162   -0.469531 C.ar      1 <1>        -0.130200 
     27 C          -6.918368   -0.746093    0.842097 C.ar      1 <1>        -0.132800 
     28 C          -5.559598   -0.706651    1.058873 C.ar      1 <1>        -0.187400 
     29 C          -4.647092   -0.772149   -0.027771 C.ar      1 <1>         0.088300 
     30 C          -3.230786   -0.739868    0.129748 C.ar      1 <1>         0.002700 
     31 BR         -2.462483   -0.620749    1.869065 Br        1 <1>        -0.098800 
     32 N          -0.964017    1.400640   -0.381141 N.ar      1 <1>        -0.531900 
     33 H          -3.897377    3.862926    3.332273 H         1 <1>         0.147400 
     34 H          -3.554832    5.278519    2.193556 H         1 <1>         0.136600 
     35 H          -2.750257    2.324599    1.788177 H         1 <1>         0.166600 
     36 H          -2.646019    3.256484   -0.571131 H         1 <1>         0.192800 
     37 H          -2.408767    4.886987    0.077192 H         1 <1>         0.153100 
     38 H          -0.169393    4.321003    0.643581 H         1 <1>         0.339000 
     39 H           3.445178    1.961705    0.394278 H         1 <1>         0.358100 
     40 H           2.569761   -1.573644   -0.493011 H         1 <1>         0.207000 
     41 H           4.343154   -3.301638   -0.639958 H         1 <1>         0.162900 
     42 H           7.309715   -0.333109    0.385948 H         1 <1>         0.172700 
     43 H          -2.223632   -0.951952   -3.099335 H         1 <1>         0.153800 
     44 H          -4.686911   -1.025770   -3.464858 H         1 <1>         0.143700 
     45 H          -6.968540   -0.996896   -2.555891 H         1 <1>         0.137000 
     46 H          -8.512823   -0.882709   -0.624770 H         1 <1>         0.137200 
     47 H          -7.598593   -0.694670    1.687715 H         1 <1>         0.138200 
     48 H          -5.165803   -0.624439    2.065338 H         1 <1>         0.155800 
@<TRIPOS>BOND
     1   23   44 1    
     2   22   43 1    
     3   25   45 1    
     4   22   23 ar   
     5   23   24 ar   
     6   21   22 ar   
     7    3   36 1    
     8    3   37 1    
     9   24   25 ar   
    10   25   26 ar   
    11   24   29 ar   
    12    4    3 1    
    13    5    4 1    
    14    4   38 1    
    15    3    2 1    
    16    5   32 ar   
    17   19   32 ar   
    18    6    5 ar   
    19   20   21 1    
    20   21   30 ar   
    21   19   20 1    
    22   18   19 ar   
    23    7    6 ar   
    24    7   18 ar   
    25    8    7 1    
    26    8   39 1    
    27   26   46 1    
    28    9    8 1    
    29   26   27 ar   
    30   10   40 1    
    31    9   10 ar   
    32    9   16 ar   
    33   16   17 1    
    34   10   11 ar   
    35   16   15 ar   
    36   11   41 1    
    37   11   12 ar   
    38   29   30 ar   
    39   29   28 ar   
    40   15   12 ar   
    41   15   42 1    
    42   12   13 1    
    43   30   31 1    
    44    2   35 1    
    45    2    1 2    
    46   13   14 3    
    47    1   34 1    
    48   27   28 ar   
    49   27   47 1    
    50    1   33 1    
    51   28   48 1    
@<TRIPOS>SUBSTRUCTURE
     1 ****       36 TEMP              0 ****  ****    0 ROOT 
