#	Name:			XYZ-2008-EJMC-1230-8E
#	Creating user name:	Administrator
#	Creation time:		Sun Jul 05 17:12:37 2020

#	Modifying user name:	Administrator
#	Modification time:	Sun Jul 05 17:12:51 2020

@<TRIPOS>MOLECULE
XYZ-2008-EJMC-1230-8E
   41    44     1     0     0
SMALL
MULLIKEN_CHARGES
INVALID_CHARGES
Gaussian 16 #p B3LYP/6-31G* opt
@<TRIPOS>ATOM
      1 N           7.778982   -3.784509   -0.305197 N.1       1 <1>        -0.483300 
      2 C           6.954919   -2.965531   -0.233063 C.1       1 <1>         0.228800 
      3 C           5.943777   -1.956552   -0.143128 C.ar      1 <1>         0.132600 
      4 C           6.282354   -0.639366    0.212343 C.ar      1 <1>        -0.140400 
      5 C           5.298196    0.331801    0.297914 C.ar      1 <1>        -0.205300 
      6 C           3.949702    0.021485    0.032814 C.ar      1 <1>         0.379200 
      7 N           3.033774    1.072765    0.147143 N.pl3     1 <1>        -0.776100 
      8 C           1.674783    1.137891   -0.028934 C.ar      1 <1>         0.719800 
      9 N           1.158157    2.361795    0.182475 N.ar      1 <1>        -0.562200 
     10 C          -0.168808    2.427592    0.009204 C.ar      1 <1>         0.669200 
     11 N          -0.766493    3.627725    0.181391 N.3       1 <1>        -0.771800 
     12 N          -0.972799    1.396728   -0.340711 N.ar      1 <1>        -0.522700 
     13 C          -0.319578    0.258771   -0.511587 C.ar      1 <1>         0.677900 
     14 O          -1.007326   -0.853514   -0.856874 O.3       1 <1>        -0.542800 
     15 C          -2.389726   -0.782954   -1.042581 C.ar      1 <1>         0.292300 
     16 C          -2.896285   -0.362915   -2.245580 C.ar      1 <1>        -0.144500 
     17 C          -4.291765   -0.371306   -2.458669 C.ar      1 <1>        -0.158600 
     18 C          -5.137371   -0.804586   -1.464238 C.ar      1 <1>        -0.130400 
     19 CL         -6.870656   -0.789823   -1.780777 Cl        1 <1>        -0.013700 
     20 C          -4.649152   -1.262761   -0.205590 C.ar      1 <1>         0.124300 
     21 C          -5.484295   -1.728010    0.844570 C.ar      1 <1>        -0.198000 
     22 C          -4.945909   -2.163142    2.034405 C.ar      1 <1>        -0.129400 
     23 C          -3.545685   -2.159371    2.234548 C.ar      1 <1>        -0.131700 
     24 C          -2.704818   -1.714554    1.240730 C.ar      1 <1>        -0.190000 
     25 C          -3.227611   -1.252416    0.004181 C.ar      1 <1>         0.120800 
     26 N           0.990608    0.040669   -0.377719 N.ar      1 <1>        -0.541800 
     27 C           3.607483   -1.295381   -0.323765 C.ar      1 <1>        -0.160300 
     28 C           4.599318   -2.265054   -0.407882 C.ar      1 <1>        -0.154400 
     29 H           7.316814   -0.385485    0.419486 H         1 <1>         0.158800 
     30 H           5.571188    1.347690    0.573849 H         1 <1>         0.137300 
     31 H           3.419493    1.971771    0.407800 H         1 <1>         0.347400 
     32 H          -1.773762    3.672866    0.175583 H         1 <1>         0.355700 
     33 H          -0.229389    4.392898    0.558263 H         1 <1>         0.350800 
     34 H          -2.224513   -0.023271   -3.026423 H         1 <1>         0.150500 
     35 H          -4.696868   -0.036170   -3.407001 H         1 <1>         0.159500 
     36 H          -6.557769   -1.738047    0.694085 H         1 <1>         0.159600 
     37 H          -5.601808   -2.516614    2.825013 H         1 <1>         0.138600 
     38 H          -3.134082   -2.512654    3.175774 H         1 <1>         0.138600 
     39 H          -1.629575   -1.721243    1.381349 H         1 <1>         0.154000 
     40 H           2.575471   -1.540572   -0.529306 H         1 <1>         0.200500 
     41 H           4.329853   -3.279622   -0.683556 H         1 <1>         0.161100 
@<TRIPOS>BOND
     1   17   35 1    
     2   16   34 1    
     3   16   17 ar   
     4   17   18 ar   
     5   15   16 ar   
     6   18   19 1    
     7   20   18 ar   
     8   28   41 1    
     9    2    1 3    
    10   14   15 1    
    11   15   25 ar   
    12   13   14 1    
    13   27   28 ar   
    14   28    3 ar   
    15    3    2 1    
    16   27   40 1    
    17    6   27 ar   
    18    4    3 ar   
    19   26   13 ar   
    20   13   12 ar   
    21    8   26 ar   
    22   12   10 ar   
    23    6    5 ar   
    24    7    6 1    
    25    4   29 1    
    26    5    4 ar   
    27   25   20 ar   
    28   20   21 ar   
    29    8    7 1    
    30    8    9 ar   
    31   25   24 ar   
    32    5   30 1    
    33    7   31 1    
    34   10    9 ar   
    35   10   11 1    
    36   11   32 1    
    37   11   33 1    
    38   21   36 1    
    39   21   22 ar   
    40   24   39 1    
    41   24   23 ar   
    42   22   23 ar   
    43   22   37 1    
    44   23   38 1    
@<TRIPOS>SUBSTRUCTURE
     1 ****       35 TEMP              0 ****  ****    0 ROOT 
