#	Name:			XYZ-2008-EJMC-1230-9B
#	Creating user name:	Administrator
#	Creation time:		Sun Jul 05 17:12:38 2020

#	Modifying user name:	Administrator
#	Modification time:	Sun Jul 05 17:12:51 2020

@<TRIPOS>MOLECULE
XYZ-2008-EJMC-1230-9B
   41    44     1     0     0
SMALL
MULLIKEN_CHARGES
INVALID_CHARGES
Gaussian 16 #p B3LYP/6-31G* opt
@<TRIPOS>ATOM
      1 N           8.415435    4.799403    1.741927 N.1       1 <1>        -0.483600 
      2 C           7.484978    4.156090    1.466975 C.1       1 <1>         0.228000 
      3 C           6.341110    3.365464    1.128713 C.ar      1 <1>         0.132200 
      4 C           6.481488    1.999458    0.826841 C.ar      1 <1>        -0.140300 
      5 C           5.369189    1.241448    0.500040 C.ar      1 <1>        -0.204400 
      6 C           4.084056    1.818772    0.463360 C.ar      1 <1>         0.381800 
      7 N           3.026952    0.971375    0.124562 N.pl3     1 <1>        -0.776800 
      8 C           1.676675    1.179150   -0.018413 C.ar      1 <1>         0.716900 
      9 N           1.150659    2.392625    0.173088 N.ar      1 <1>        -0.550100 
     10 C          -0.184008    2.436104   -0.003825 C.ar      1 <1>         0.669000 
     11 N          -0.795965    3.625481    0.195297 N.3       1 <1>        -0.770200 
     12 N          -0.970682    1.398887   -0.347116 N.ar      1 <1>        -0.525400 
     13 C          -0.304401    0.257946   -0.502418 C.ar      1 <1>         0.672900 
     14 O          -0.979670   -0.853514   -0.859297 O.3       1 <1>        -0.535200 
     15 C          -2.371907   -0.823906   -0.978693 C.ar      1 <1>         0.354200 
     16 C          -3.177507   -0.695509    0.176630 C.ar      1 <1>        -0.134000 
     17 C          -4.543933   -0.775374    0.054648 C.ar      1 <1>        -0.210100 
     18 C          -5.160191   -0.989844   -1.208976 C.ar      1 <1>         0.146800 
     19 C          -6.569377   -1.077527   -1.361195 C.ar      1 <1>        -0.194000 
     20 C          -7.133723   -1.290170   -2.599031 C.ar      1 <1>        -0.134700 
     21 C          -6.310908   -1.426132   -3.743702 C.ar      1 <1>        -0.136100 
     22 C          -4.940819   -1.347495   -3.630129 C.ar      1 <1>        -0.189400 
     23 C          -4.327811   -1.127518   -2.367579 C.ar      1 <1>         0.127700 
     24 C          -2.917767   -1.039184   -2.218185 C.ar      1 <1>        -0.236300 
     25 N           1.002756    0.062367   -0.357489 N.ar      1 <1>        -0.548400 
     26 C           3.941291    3.185008    0.765551 C.ar      1 <1>        -0.154400 
     27 C           5.060284    3.940617    1.092657 C.ar      1 <1>        -0.153000 
     28 H           7.464386    1.540347    0.850575 H         1 <1>         0.159700 
     29 H           5.489687    0.185918    0.268122 H         1 <1>         0.141000 
     30 H           3.270161    0.005440   -0.058385 H         1 <1>         0.352300 
     31 H          -1.768371    3.714320   -0.056630 H         1 <1>         0.355400 
     32 H          -0.232640    4.452292    0.317997 H         1 <1>         0.350300 
     33 H          -2.705192   -0.537501    1.140165 H         1 <1>         0.143200 
     34 H          -5.174086   -0.678512    0.935365 H         1 <1>         0.136400 
     35 H          -7.197716   -0.973967   -0.479512 H         1 <1>         0.131400 
     36 H          -8.213414   -1.355236   -2.702176 H         1 <1>         0.132000 
     37 H          -6.766749   -1.594212   -4.715755 H         1 <1>         0.132700 
     38 H          -4.308062   -1.452554   -4.508097 H         1 <1>         0.133100 
     39 H          -2.267498   -1.147652   -3.081103 H         1 <1>         0.143200 
     40 H           2.958771    3.632598    0.739595 H         1 <1>         0.179300 
     41 H           4.943681    4.994494    1.325178 H         1 <1>         0.156800 
@<TRIPOS>BOND
     1   22   38 1    
     2   21   37 1    
     3   22   21 ar   
     4   23   22 ar   
     5   21   20 ar   
     6   24   39 1    
     7   11   32 1    
     8   11   31 1    
     9   27   41 1    
    10   24   23 ar   
    11   15   24 ar   
    12   23   18 ar   
    13   10   11 1    
    14   20   36 1    
    15   20   19 ar   
    16    2    1 3    
    17   26   40 1    
    18   26   27 ar   
    19   27    3 ar   
    20    3    2 1    
    21   10    9 ar   
    22   12   10 ar   
    23    6   26 ar   
    24    8    9 ar   
    25    4    3 ar   
    26   13   12 ar   
    27    7    6 1    
    28    6    5 ar   
    29    8    7 1    
    30   25    8 ar   
    31    5    4 ar   
    32    4   28 1    
    33    7   30 1    
    34    5   29 1    
    35   13   25 ar   
    36   14   13 1    
    37   14   15 1    
    38   15   16 ar   
    39   18   19 ar   
    40   18   17 ar   
    41   19   35 1    
    42   16   17 ar   
    43   16   33 1    
    44   17   34 1    
@<TRIPOS>SUBSTRUCTURE
     1 ****       32 TEMP              0 ****  ****    0 ROOT 
