#	Name:			FXQ-2009-CMC-219-10W
#	Creating user name:	Administrator
#	Creation time:		Sun Jul 05 16:13:31 2020

#	Modifying user name:	Administrator
#	Modification time:	Sun Jul 05 16:19:33 2020

@<TRIPOS>MOLECULE
FXQ-2009-CMC-219-10W
   40    43     1     0     0
SMALL
MULLIKEN_CHARGES
INVALID_CHARGES
Gaussian 16 #p B3LYP/6-31G* opt
@<TRIPOS>ATOM
      1 N          -8.049187   -2.867682   -0.553016 N.1       1 <1>        -0.485300 
      2 C          -6.968619   -2.456366   -0.415905 C.1       1 <1>         0.227200 
      3 C          -5.640041   -1.952951   -0.246532 C.ar      1 <1>         0.131200 
      4 C          -4.567840   -2.833223   -0.016444 C.ar      1 <1>        -0.140600 
      5 C          -3.284713   -2.338804    0.147088 C.ar      1 <1>        -0.205700 
      6 C          -3.027987   -0.953753    0.086971 C.ar      1 <1>         0.382600 
      7 N          -1.702676   -0.555316    0.266185 N.pl3     1 <1>        -0.768400 
      8 C          -1.097066    0.682903    0.264303 C.ar      1 <1>         0.702000 
      9 N          -1.815328    1.790946    0.061395 N.ar      1 <1>        -0.488400 
     10 C          -1.117011    2.939072    0.076985 C.ar      1 <1>         0.069500 
     11 C           0.248835    3.006415    0.284417 C.ar      1 <1>        -0.212900 
     12 C           0.879338    1.768014    0.486233 C.ar      1 <1>         0.581400 
     13 O           2.219773    1.787521    0.705220 O.3       1 <1>        -0.559200 
     14 C           2.900390    0.587104    0.879760 C.ar      1 <1>         0.329500 
     15 C           3.159542    0.165535    2.201700 C.ar      1 <1>        -0.150400 
     16 C           3.909003   -0.962298    2.426384 C.ar      1 <1>        -0.204200 
     17 C           4.431610   -1.717432    1.343704 C.ar      1 <1>         0.154000 
     18 C           5.208620   -2.886171    1.562128 C.ar      1 <1>        -0.197100 
     19 C           5.712687   -3.610796    0.507235 C.ar      1 <1>        -0.130000 
     20 C           5.458851   -3.192859   -0.820313 C.ar      1 <1>        -0.133300 
     21 C           4.710582   -2.064795   -1.071487 C.ar      1 <1>        -0.187400 
     22 C           4.175517   -1.294307   -0.005098 C.ar      1 <1>         0.086600 
     23 C           3.394625   -0.116399   -0.196565 C.ar      1 <1>        -0.005600 
     24 BR          3.010518    0.520435   -1.950713 Br        1 <1>        -0.103000 
     25 N           0.235709    0.616856    0.483197 N.ar      1 <1>        -0.558400 
     26 C          -4.099159   -0.070784   -0.143620 C.ar      1 <1>        -0.159100 
     27 C          -5.384156   -0.573159   -0.306833 C.ar      1 <1>        -0.153500 
     28 H          -4.749004   -3.902070    0.032407 H         1 <1>         0.157500 
     29 H          -2.463214   -3.029185    0.324181 H         1 <1>         0.137400 
     30 H          -1.033107   -1.298249    0.421822 H         1 <1>         0.349600 
     31 H          -1.695792    3.845359   -0.088562 H         1 <1>         0.157100 
     32 H           0.804866    3.934926    0.290704 H         1 <1>         0.160000 
     33 H           2.758089    0.756408    3.018451 H         1 <1>         0.150900 
     34 H           4.112497   -1.290354    3.442003 H         1 <1>         0.143900 
     35 H           5.397536   -3.197328    2.586674 H         1 <1>         0.137500 
     36 H           6.305134   -4.502740    0.689648 H         1 <1>         0.138300 
     37 H           5.858697   -3.768063   -1.650842 H         1 <1>         0.139700 
     38 H           4.519051   -1.749670   -2.090897 H         1 <1>         0.158200 
     39 H          -3.908803    0.991532   -0.192035 H         1 <1>         0.190300 
     40 H          -6.206026    0.113249   -0.484508 H         1 <1>         0.158000 
@<TRIPOS>BOND
     1   16   34 1    
     2   15   33 1    
     3   15   16 ar   
     4   16   17 ar   
     5   18   35 1    
     6   14   15 ar   
     7   17   18 ar   
     8   18   19 ar   
     9   17   22 ar   
    10   13   14 1    
    11   14   23 ar   
    12   12   13 1    
    13   25   12 ar   
    14   12   11 ar   
    15   11   32 1    
    16    8   25 ar   
    17   10   11 ar   
    18   10   31 1    
    19    9   10 ar   
    20    7    8 1    
    21    8    9 ar   
    22    7   30 1    
    23    6    7 1    
    24   19   36 1    
    25    5   29 1    
    26   19   20 ar   
    27    6    5 ar   
    28    6   26 ar   
    29    5    4 ar   
    30   26   39 1    
    31   26   27 ar   
    32    4   28 1    
    33    4    3 ar   
    34   22   23 ar   
    35   22   21 ar   
    36   27    3 ar   
    37   27   40 1    
    38   23   24 1    
    39    3    2 1    
    40    2    1 3    
    41   20   21 ar   
    42   20   37 1    
    43   21   38 1    
@<TRIPOS>SUBSTRUCTURE
     1 ****       35 TEMP              0 ****  ****    0 ROOT 
