#	Name:			FXQ-2009-CMC-219-10V
#	Creating user name:	Administrator
#	Creation time:		Sun Jul 05 16:13:31 2020

#	Modifying user name:	Administrator
#	Modification time:	Sun Jul 05 16:19:33 2020

@<TRIPOS>MOLECULE
FXQ-2009-CMC-219-10V
   43    46     1     0     0
SMALL
MULLIKEN_CHARGES
INVALID_CHARGES
Gaussian 16 #p B3LYP/6-31G* opt
@<TRIPOS>ATOM
      1 C           1.021702    4.314983    0.335112 C.3       1 <1>        -0.521200 
      2 C           0.255633    3.023191    0.294019 C.ar      1 <1>         0.087200 
      3 C          -1.111141    2.934437    0.075886 C.ar      1 <1>         0.014100 
      4 N          -1.810971    1.787082    0.053544 N.ar      1 <1>        -0.487300 
      5 C          -1.099372    0.679300    0.262988 C.ar      1 <1>         0.699900 
      6 N          -1.705520   -0.561053    0.270925 N.pl3     1 <1>        -0.770600 
      7 C          -3.029704   -0.957996    0.090773 C.ar      1 <1>         0.383400 
      8 C          -3.293888   -2.340836    0.174820 C.ar      1 <1>        -0.206200 
      9 C          -4.577350   -2.832701    0.007919 C.ar      1 <1>        -0.140700 
     10 C          -5.643600   -1.952615   -0.249797 C.ar      1 <1>         0.130500 
     11 C          -6.972295   -2.453673   -0.424069 C.1       1 <1>         0.226400 
     12 N          -8.052936   -2.863173   -0.565981 N.1       1 <1>        -0.486400 
     13 C          -5.380762   -0.575184   -0.333134 C.ar      1 <1>        -0.153700 
     14 C          -4.095452   -0.075211   -0.166611 C.ar      1 <1>        -0.160100 
     15 N           0.232742    0.617927    0.481964 N.ar      1 <1>        -0.561700 
     16 C           0.871749    1.769715    0.493233 C.ar      1 <1>         0.535900 
     17 O           2.218455    1.785810    0.695377 O.3       1 <1>        -0.560000 
     18 C           2.874738    0.603310    1.014175 C.ar      1 <1>         0.333500 
     19 C           3.475695   -0.128339   -0.032558 C.ar      1 <1>        -0.149000 
     20 C           4.212757   -1.250596    0.253072 C.ar      1 <1>        -0.205000 
     21 C           4.381673   -1.691151    1.592226 C.ar      1 <1>         0.154100 
     22 C           5.142007   -2.850473    1.900852 C.ar      1 <1>        -0.197300 
     23 C           5.301864   -3.269023    3.201294 C.ar      1 <1>        -0.129900 
     24 C           4.703619   -2.539493    4.255505 C.ar      1 <1>        -0.133300 
     25 C           3.960224   -1.410096    3.995601 C.ar      1 <1>        -0.187100 
     26 C           3.775573   -0.951262    2.664297 C.ar      1 <1>         0.087100 
     27 C           3.019901    0.209619    2.326281 C.ar      1 <1>        -0.008200 
     28 BR          2.185878    1.257712    3.682917 Br        1 <1>        -0.105000 
     29 H           1.792419    4.352480   -0.443791 H         1 <1>         0.171000 
     30 H           0.349597    5.166722    0.191132 H         1 <1>         0.157000 
     31 H           1.534781    4.438611    1.295839 H         1 <1>         0.179200 
     32 H          -1.690626    3.842051   -0.088809 H         1 <1>         0.148300 
     33 H          -1.040079   -1.301726    0.451659 H         1 <1>         0.348100 
     34 H          -2.477317   -3.031108    0.374108 H         1 <1>         0.136000 
     35 H          -4.763823   -3.899617    0.075859 H         1 <1>         0.156500 
     36 H          -6.197913    0.111296   -0.531248 H         1 <1>         0.157000 
     37 H          -3.900153    0.985465   -0.231155 H         1 <1>         0.189800 
     38 H           3.341308    0.223008   -1.050137 H         1 <1>         0.150200 
     39 H           4.678912   -1.817032   -0.548571 H         1 <1>         0.143800 
     40 H           5.597582   -3.402799    1.082552 H         1 <1>         0.137500 
     41 H           5.885880   -4.157873    3.422083 H         1 <1>         0.138300 
     42 H           4.831871   -2.873669    5.281231 H         1 <1>         0.139700 
     43 H           3.503607   -0.855345    4.807368 H         1 <1>         0.158000 
@<TRIPOS>BOND
     1   20   39 1    
     2   19   38 1    
     3   19   20 ar   
     4   20   21 ar   
     5   22   40 1    
     6   18   19 ar   
     7    1   29 1    
     8   21   22 ar   
     9   22   23 ar   
    10   21   26 ar   
    11   17   18 1    
    12   18   27 ar   
    13   16   17 1    
    14   15   16 ar   
    15   16    2 ar   
    16    5   15 ar   
    17    2    1 1    
    18    1   30 1    
    19    1   31 1    
    20    3    2 ar   
    21    6   33 1    
    22    6    5 1    
    23    5    4 ar   
    24    7    6 1    
    25    8   34 1    
    26    4    3 ar   
    27    3   32 1    
    28   23   41 1    
    29    8    7 ar   
    30    8    9 ar   
    31   23   24 ar   
    32    7   14 ar   
    33    9   35 1    
    34    9   10 ar   
    35   14   37 1    
    36   14   13 ar   
    37   26   27 ar   
    38   26   25 ar   
    39   27   28 1    
    40   10   13 ar   
    41   10   11 1    
    42   13   36 1    
    43   11   12 3    
    44   24   25 ar   
    45   24   42 1    
    46   25   43 1    
@<TRIPOS>SUBSTRUCTURE
     1 ****       34 TEMP              0 ****  ****    0 ROOT 
