#	Name:			FXQ-2009-CMC-219-10B
#	Creating user name:	Administrator
#	Creation time:		Sun Jul 05 16:13:29 2020

#	Modifying user name:	Administrator
#	Modification time:	Sun Jul 05 16:19:33 2020

@<TRIPOS>MOLECULE
FXQ-2009-CMC-219-10B
   43    46     1     0     0
SMALL
MULLIKEN_CHARGES
INVALID_CHARGES
Gaussian 16 #p B3LYP/6-31G* opt
@<TRIPOS>ATOM
      1 C           1.020886    4.315630    0.305273 C.3       1 <1>        -0.519300 
      2 C           0.256163    3.021933    0.287179 C.ar      1 <1>         0.084400 
      3 C          -1.111555    2.934165    0.076941 C.ar      1 <1>         0.013100 
      4 N          -1.813406    1.787818    0.059269 N.ar      1 <1>        -0.487500 
      5 C          -1.099893    0.680060    0.263874 C.ar      1 <1>         0.697400 
      6 N          -1.705001   -0.561135    0.266669 N.pl3     1 <1>        -0.770200 
      7 C          -3.028548   -0.959073    0.085153 C.ar      1 <1>         0.383200 
      8 C          -3.288649   -2.343751    0.148798 C.ar      1 <1>        -0.206300 
      9 C          -4.571872   -2.836325   -0.017886 C.ar      1 <1>        -0.140800 
     10 C          -5.642030   -1.955114   -0.254916 C.ar      1 <1>         0.130400 
     11 C          -6.970668   -2.456737   -0.427876 C.1       1 <1>         0.226300 
     12 N          -8.051401   -2.866531   -0.568440 N.1       1 <1>        -0.486600 
     13 C          -5.383182   -0.575947   -0.318508 C.ar      1 <1>        -0.153700 
     14 C          -4.098112   -0.075184   -0.152164 C.ar      1 <1>        -0.160300 
     15 N           0.231703    0.617745    0.483444 N.ar      1 <1>        -0.558200 
     16 C           0.875712    1.768190    0.490796 C.ar      1 <1>         0.525600 
     17 O           2.217852    1.787635    0.699763 O.3       1 <1>        -0.567800 
     18 C           2.898674    0.590655    0.957001 C.ar      1 <1>         0.287400 
     19 C           2.994931    0.138169    2.249364 C.ar      1 <1>        -0.155000 
     20 C           3.751302   -1.024294    2.528571 C.ar      1 <1>        -0.151500 
     21 C           4.392088   -1.698537    1.514498 C.ar      1 <1>        -0.178600 
     22 C           4.311618   -1.239523    0.172318 C.ar      1 <1>         0.119600 
     23 C           4.967692   -1.909964   -0.895116 C.ar      1 <1>        -0.195500 
     24 C           4.878549   -1.442486   -2.186396 C.ar      1 <1>        -0.130300 
     25 C           4.128540   -0.275776   -2.472228 C.ar      1 <1>        -0.135900 
     26 C           3.478389    0.401033   -1.465141 C.ar      1 <1>        -0.185100 
     27 C           3.548348   -0.062293   -0.125019 C.ar      1 <1>         0.120000 
     28 H           0.348173    5.162621    0.137390 H         1 <1>         0.157500 
     29 H           1.796049    4.336849   -0.469995 H         1 <1>         0.171400 
     30 H           1.529874    4.467630    1.264229 H         1 <1>         0.173000 
     31 H          -1.690399    3.842125   -0.088552 H         1 <1>         0.147400 
     32 H          -1.035581   -1.302522    0.429411 H         1 <1>         0.348800 
     33 H          -2.469030   -3.035044    0.331303 H         1 <1>         0.136300 
     34 H          -4.755044   -3.904779    0.034033 H         1 <1>         0.156500 
     35 H          -6.203287    0.111412   -0.501174 H         1 <1>         0.156800 
     36 H          -3.905732    0.986733   -0.202598 H         1 <1>         0.189500 
     37 H           2.489572    0.677818    3.043685 H         1 <1>         0.141000 
     38 H           3.821898   -1.377877    3.553031 H         1 <1>         0.138600 
     39 H           4.974314   -2.591275    1.728106 H         1 <1>         0.133700 
     40 H           5.545902   -2.803160   -0.670904 H         1 <1>         0.134500 
     41 H           5.386267   -1.966082   -2.991813 H         1 <1>         0.135100 
     42 H           4.068600    0.086940   -3.494668 H         1 <1>         0.135200 
     43 H           2.911043    1.299531   -1.683049 H         1 <1>         0.140100 
@<TRIPOS>BOND
     1   20   38 1    
     2   19   37 1    
     3   19   20 ar   
     4   20   21 ar   
     5   18   19 ar   
     6   21   39 1    
     7   22   21 ar   
     8   17   18 1    
     9   18   27 ar   
    10    1   30 1    
    11    8   33 1    
    12    6   32 1    
    13    9   34 1    
    14   16   17 1    
    15    8    9 ar   
    16    7    8 ar   
    17   16   15 ar   
    18   15    5 ar   
    19    6    7 1    
    20    5    6 1    
    21    9   10 ar   
    22   27   22 ar   
    23   22   23 ar   
    24    2   16 ar   
    25    7   14 ar   
    26    5    4 ar   
    27   10   11 1    
    28   10   13 ar   
    29    2    1 1    
    30    2    3 ar   
    31   11   12 3    
    32   14   13 ar   
    33   14   36 1    
    34   27   26 ar   
    35    4    3 ar   
    36    1   28 1    
    37    1   29 1    
    38   13   35 1    
    39    3   31 1    
    40   23   40 1    
    41   23   24 ar   
    42   26   43 1    
    43   26   25 ar   
    44   24   25 ar   
    45   24   41 1    
    46   25   42 1    
@<TRIPOS>SUBSTRUCTURE
     1 ****       32 TEMP              0 ****  ****    0 ROOT 
