#	Name:			FXQ-2009-CMC-219-10AB
#	Creating user name:	Administrator
#	Creation time:		Sun Jul 05 16:13:29 2020

#	Modifying user name:	Administrator
#	Modification time:	Sun Jul 05 16:19:33 2020

@<TRIPOS>MOLECULE
FXQ-2009-CMC-219-10AB
   43    46     1     0     0
SMALL
MULLIKEN_CHARGES
INVALID_CHARGES
Gaussian 16 #p B3LYP/6-31G* opt
@<TRIPOS>ATOM
      1 C           1.022059    4.315200    0.302434 C.3       1 <1>        -0.519900 
      2 C           0.256980    3.021812    0.286402 C.ar      1 <1>         0.083300 
      3 C          -1.111386    2.934045    0.078560 C.ar      1 <1>         0.014800 
      4 N          -1.812864    1.787747    0.060646 N.ar      1 <1>        -0.486900 
      5 C          -1.100253    0.679153    0.262787 C.ar      1 <1>         0.697300 
      6 N          -1.706724   -0.560741    0.270674 N.pl3     1 <1>        -0.769500 
      7 C          -3.033027   -0.956646    0.099336 C.ar      1 <1>         0.382600 
      8 C          -3.297113   -2.339251    0.183589 C.ar      1 <1>        -0.206400 
      9 C          -4.582245   -2.830203    0.025565 C.ar      1 <1>        -0.140600 
     10 C          -5.649679   -1.949039   -0.223268 C.ar      1 <1>         0.130900 
     11 C          -6.980124   -2.448800   -0.388036 C.1       1 <1>         0.226900 
     12 N          -8.062253   -2.856784   -0.522116 N.1       1 <1>        -0.485400 
     13 C          -5.386652   -0.571713   -0.307007 C.ar      1 <1>        -0.153600 
     14 C          -4.099718   -0.072773   -0.149461 C.ar      1 <1>        -0.160100 
     15 N           0.232830    0.616978    0.476941 N.ar      1 <1>        -0.563400 
     16 C           0.876583    1.767922    0.484571 C.ar      1 <1>         0.525500 
     17 O           2.216408    1.789495    0.707354 O.3       1 <1>        -0.562400 
     18 C           2.933410    0.596273    0.817483 C.ar      1 <1>         0.360400 
     19 C           3.093309   -0.241051   -0.311652 C.ar      1 <1>        -0.138100 
     20 C           3.886846   -1.358862   -0.215082 C.ar      1 <1>        -0.206200 
     21 C           4.552589   -1.683635    0.998918 C.ar      1 <1>         0.145500 
     22 C           5.377431   -2.833307    1.117983 C.ar      1 <1>        -0.220800 
     23 C           6.003725   -3.105170    2.310422 C.ar      1 <1>         0.079000 
     24 BR          7.113597   -4.654186    2.470442 Br        1 <1>        -0.125700 
     25 C           5.850805   -2.263923    3.436583 C.ar      1 <1>        -0.152100 
     26 C           5.056508   -1.144475    3.339978 C.ar      1 <1>        -0.190200 
     27 C           4.386795   -0.820594    2.130014 C.ar      1 <1>         0.135400 
     28 C           3.559587    0.327002    2.008054 C.ar      1 <1>        -0.238000 
     29 H           1.803275    4.329628   -0.466679 H         1 <1>         0.173000 
     30 H           0.351215    5.161250    0.123370 H         1 <1>         0.158500 
     31 H           1.522684    4.474015    1.264750 H         1 <1>         0.172700 
     32 H          -1.690327    3.841872   -0.086619 H         1 <1>         0.149000 
     33 H          -1.040592   -1.302594    0.444036 H         1 <1>         0.348000 
     34 H          -2.479759   -3.030506    0.376046 H         1 <1>         0.136600 
     35 H          -4.768830   -3.897042    0.093526 H         1 <1>         0.157500 
     36 H          -6.204773    0.115458   -0.498521 H         1 <1>         0.157600 
     37 H          -3.904452    0.987825   -0.214449 H         1 <1>         0.189700 
     38 H           2.589618    0.011685   -1.238214 H         1 <1>         0.147900 
     39 H           4.018158   -2.008817   -1.076150 H         1 <1>         0.144200 
     40 H           5.508139   -3.490565    0.264429 H         1 <1>         0.155500 
     41 H           6.359842   -2.508770    4.362254 H         1 <1>         0.157600 
     42 H           4.934029   -0.492611    4.201243 H         1 <1>         0.144500 
     43 H           3.424004    0.996527    2.851909 H         1 <1>         0.145600 
@<TRIPOS>BOND
     1   20   39 1    
     2   19   38 1    
     3   22   40 1    
     4   19   20 ar   
     5   20   21 ar   
     6   18   19 ar   
     7    1   29 1    
     8   21   22 ar   
     9   22   23 ar   
    10   21   27 ar   
    11   17   18 1    
    12   18   28 ar   
    13   16   17 1    
    14    6   33 1    
    15   16   15 ar   
    16   15    5 ar   
    17   23   24 1    
    18    8   34 1    
    19    2   16 ar   
    20    5    6 1    
    21    6    7 1    
    22    5    4 ar   
    23    7    8 ar   
    24    8    9 ar   
    25    9   35 1    
    26    7   14 ar   
    27    2    1 1    
    28    2    3 ar   
    29    9   10 ar   
    30    1   30 1    
    31    1   31 1    
    32    4    3 ar   
    33    3   32 1    
    34   14   37 1    
    35   14   13 ar   
    36   10   13 ar   
    37   10   11 1    
    38   13   36 1    
    39   11   12 3    
    40   23   25 ar   
    41   27   28 ar   
    42   27   26 ar   
    43   28   43 1    
    44   25   26 ar   
    45   25   41 1    
    46   26   42 1    
@<TRIPOS>SUBSTRUCTURE
     1 ****       34 TEMP              0 ****  ****    0 ROOT 
