#	Name:			FXQ-2009-CMC-219-10J
#	Creating user name:	Administrator
#	Creation time:		Sun Jul 05 16:13:29 2020

#	Modifying user name:	Administrator
#	Modification time:	Sun Jul 05 16:19:33 2020

@<TRIPOS>MOLECULE
FXQ-2009-CMC-219-10J
   40    43     1     0     0
SMALL
MULLIKEN_CHARGES
INVALID_CHARGES
Gaussian 16 #p B3LYP/6-31G* opt
@<TRIPOS>ATOM
      1 N          -7.976704   -2.978425   -0.543914 N.1       1 <1>        -0.484800 
      2 C          -6.903405   -2.548964   -0.405882 C.1       1 <1>         0.227400 
      3 C          -5.583812   -2.022623   -0.236298 C.ar      1 <1>         0.131300 
      4 C          -5.348682   -0.640177   -0.317258 C.ar      1 <1>        -0.153400 
      5 C          -4.072621   -0.115507   -0.154759 C.ar      1 <1>        -0.159400 
      6 C          -2.989244   -0.977854    0.096056 C.ar      1 <1>         0.382200 
      7 N          -1.670358   -0.557127    0.273679 N.pl3     1 <1>        -0.766500 
      8 C          -1.082373    0.689484    0.265120 C.ar      1 <1>         0.698800 
      9 N          -1.823032    1.786159    0.055888 N.ar      1 <1>        -0.483500 
     10 C          -1.142705    2.939852    0.069472 C.ar      1 <1>         0.067600 
     11 C           0.224226    3.033825    0.285057 C.ar      1 <1>        -0.217300 
     12 C           0.879393    1.808199    0.491755 C.ar      1 <1>         0.538000 
     13 O           2.219261    1.689246    0.704661 O.3       1 <1>        -0.535000 
     14 C           3.011843    2.827355    0.825952 C.ar      1 <1>         0.252700 
     15 C           3.066757    3.499274    2.022592 C.ar      1 <1>        -0.157200 
     16 C           3.925427    4.612059    2.162760 C.ar      1 <1>        -0.177600 
     17 C           4.707773    5.015048    1.106333 C.ar      1 <1>         0.035300 
     18 BR          5.846037    6.532902    1.363814 Br        1 <1>        -0.116800 
     19 C           4.691186    4.337435   -0.147748 C.ar      1 <1>         0.091200 
     20 C           5.485682    4.713003   -1.263045 C.ar      1 <1>        -0.190800 
     21 C           5.422516    4.010232   -2.444827 C.ar      1 <1>        -0.128100 
     22 C           4.564910    2.893002   -2.573247 C.ar      1 <1>        -0.129900 
     23 C           3.778180    2.498444   -1.515699 C.ar      1 <1>        -0.190200 
     24 C           3.814997    3.206031   -0.285390 C.ar      1 <1>         0.113200 
     25 N           0.247163    0.646772    0.482304 N.ar      1 <1>        -0.545000 
     26 C          -3.225201   -2.365519    0.177451 C.ar      1 <1>        -0.205700 
     27 C          -4.499684   -2.882342    0.014501 C.ar      1 <1>        -0.140500 
     28 H          -6.179963    0.030539   -0.510581 H         1 <1>         0.158100 
     29 H          -3.899179    0.948926   -0.218105 H         1 <1>         0.189600 
     30 H          -0.990761   -1.287316    0.445415 H         1 <1>         0.349600 
     31 H          -1.731734    3.838452   -0.104089 H         1 <1>         0.158500 
     32 H           0.741805    3.983212    0.287833 H         1 <1>         0.164700 
     33 H           2.455512    3.169904    2.856456 H         1 <1>         0.157300 
     34 H           3.967956    5.144726    3.105894 H         1 <1>         0.163700 
     35 H           6.147588    5.566044   -1.165544 H         1 <1>         0.161600 
     36 H           6.039867    4.314275   -3.285276 H         1 <1>         0.142700 
     37 H           4.530455    2.343455   -3.509606 H         1 <1>         0.142700 
     38 H           3.127432    1.635123   -1.600129 H         1 <1>         0.159200 
     39 H          -2.394498   -3.040211    0.371121 H         1 <1>         0.137900 
     40 H          -4.664576   -3.952928    0.080132 H         1 <1>         0.158200 
@<TRIPOS>BOND
     1   26   39 1    
     2   27   40 1    
     3    7   30 1    
     4   15   33 1    
     5   26   27 ar   
     6    6   26 ar   
     7   14   13 1    
     8   13   12 1    
     9   14   15 ar   
    10   15   16 ar   
    11   27    3 ar   
    12   16   34 1    
    13   12   25 ar   
    14   25    8 ar   
    15   24   14 ar   
    16    7    6 1    
    17    8    7 1    
    18   16   17 ar   
    19    6    5 ar   
    20   12   11 ar   
    21   23   38 1    
    22   24   23 ar   
    23   24   19 ar   
    24   17   19 ar   
    25   17   18 1    
    26    8    9 ar   
    27   23   22 ar   
    28   19   20 ar   
    29    3    2 1    
    30    3    4 ar   
    31    2    1 3    
    32   22   37 1    
    33   22   21 ar   
    34   20   21 ar   
    35   20   35 1    
    36    5    4 ar   
    37    5   29 1    
    38   21   36 1    
    39   11   32 1    
    40   11   10 ar   
    41    9   10 ar   
    42    4   28 1    
    43   10   31 1    
@<TRIPOS>SUBSTRUCTURE
     1 ****       30 TEMP              0 ****  ****    0 ROOT 
