#	Name:			FXQ-2009-CMC-219-10E
#	Creating user name:	Administrator
#	Creation time:		Sun Jul 05 16:13:29 2020

#	Modifying user name:	Administrator
#	Modification time:	Sun Jul 05 16:19:33 2020

@<TRIPOS>MOLECULE
FXQ-2009-CMC-219-10E
   43    46     1     0     0
SMALL
MULLIKEN_CHARGES
INVALID_CHARGES
Gaussian 16 #p B3LYP/6-31G* opt
@<TRIPOS>ATOM
      1 C          -1.977836    4.190186   -0.174793 C.3       1 <1>        -0.514300 
      2 C          -1.151340    2.955881    0.066650 C.ar      1 <1>         0.341000 
      3 C           0.221620    3.027731    0.284880 C.ar      1 <1>        -0.256100 
      4 C           0.876987    1.803995    0.491431 C.ar      1 <1>         0.544400 
      5 O           2.218609    1.690096    0.704842 O.3       1 <1>        -0.540000 
      6 C           3.009443    2.829249    0.818065 C.ar      1 <1>         0.251500 
      7 C           3.075362    3.501438    2.014193 C.ar      1 <1>        -0.154000 
      8 C           3.933430    4.615217    2.147380 C.ar      1 <1>        -0.156500 
      9 C           4.705564    5.020629    1.083497 C.ar      1 <1>        -0.130800 
     10 CL          5.755019    6.416778    1.301897 Cl        1 <1>        -0.006300 
     11 C           4.677505    4.342212   -0.170846 C.ar      1 <1>         0.125800 
     12 C           5.462372    4.721221   -1.291802 C.ar      1 <1>        -0.197400 
     13 C           5.389802    4.018670   -2.473561 C.ar      1 <1>        -0.128200 
     14 C           4.532957    2.899980   -2.594872 C.ar      1 <1>        -0.130500 
     15 C           3.756064    2.503093   -1.530989 C.ar      1 <1>        -0.189500 
     16 C           3.802003    3.209856   -0.300457 C.ar      1 <1>         0.115600 
     17 N           0.250403    0.640155    0.483321 N.ar      1 <1>        -0.549700 
     18 C          -1.079082    0.690359    0.265692 C.ar      1 <1>         0.698500 
     19 N          -1.669627   -0.556908    0.273556 N.pl3     1 <1>        -0.771400 
     20 C          -2.987788   -0.976510    0.095413 C.ar      1 <1>         0.382700 
     21 C          -3.225328   -2.364417    0.172773 C.ar      1 <1>        -0.205800 
     22 C          -4.500208   -2.879778    0.009402 C.ar      1 <1>        -0.140700 
     23 C          -5.584145   -2.018753   -0.237987 C.ar      1 <1>         0.131000 
     24 C          -6.904366   -2.543326   -0.408095 C.1       1 <1>         0.226800 
     25 N          -7.978377   -2.971014   -0.546479 N.1       1 <1>        -0.485600 
     26 C          -5.347886   -0.636271   -0.315097 C.ar      1 <1>        -0.153800 
     27 C          -4.071245   -0.113081   -0.152055 C.ar      1 <1>        -0.159600 
     28 N          -1.815995    1.785101    0.057564 N.ar      1 <1>        -0.539800 
     29 H          -2.764177    4.270235    0.584080 H         1 <1>         0.180600 
     30 H          -2.476904    4.123737   -1.148026 H         1 <1>         0.181100 
     31 H          -1.369858    5.098339   -0.151051 H         1 <1>         0.160300 
     32 H           0.748294    3.972214    0.289402 H         1 <1>         0.157900 
     33 H           2.472208    3.170601    2.853198 H         1 <1>         0.156400 
     34 H           3.985808    5.148885    3.089756 H         1 <1>         0.163500 
     35 H           6.124750    5.574681   -1.202935 H         1 <1>         0.162400 
     36 H           5.999170    4.323876   -3.319424 H         1 <1>         0.142300 
     37 H           4.491595    2.351076   -3.531361 H         1 <1>         0.142300 
     38 H           3.106119    1.638667   -1.610202 H         1 <1>         0.159700 
     39 H          -0.990132   -1.287374    0.444561 H         1 <1>         0.348900 
     40 H          -2.394970   -3.040351    0.363739 H         1 <1>         0.137500 
     41 H          -4.665823   -3.950470    0.071913 H         1 <1>         0.157600 
     42 H          -6.178980    0.035608   -0.505734 H         1 <1>         0.156600 
     43 H          -3.895844    0.951145   -0.212390 H         1 <1>         0.185700 
@<TRIPOS>BOND
     1    1   30 1    
     2    1   31 1    
     3    1   29 1    
     4    2    1 1    
     5   13   36 1    
     6   14   37 1    
     7   26   42 1    
     8   14   13 ar   
     9   12   13 ar   
    10   15   14 ar   
    11   12   35 1    
    12   27   43 1    
    13    2   28 ar   
    14    3    2 ar   
    15   11   12 ar   
    16    3   32 1    
    17   27   26 ar   
    18   26   23 ar   
    19   18   28 ar   
    20   24   25 3    
    21   20   27 ar   
    22   15   38 1    
    23   16   15 ar   
    24    4    3 ar   
    25   23   24 1    
    26   16   11 ar   
    27   11    9 ar   
    28   23   22 ar   
    29    6   16 ar   
    30    9   10 1    
    31   18   19 1    
    32   17   18 ar   
    33   19   20 1    
    34   20   21 ar   
    35    9    8 ar   
    36    4   17 ar   
    37    5    4 1    
    38   19   39 1    
    39    6    5 1    
    40    6    7 ar   
    41   22   21 ar   
    42   22   41 1    
    43   21   40 1    
    44    8    7 ar   
    45    8   34 1    
    46    7   33 1    
@<TRIPOS>SUBSTRUCTURE
     1 ****       36 TEMP              0 ****  ****    0 ROOT 
