#	Name:			FXQ-2009-CMC-219-10AF
#	Creating user name:	Administrator
#	Creation time:		Sun Jul 05 16:13:29 2020

#	Modifying user name:	Administrator
#	Modification time:	Sun Jul 05 16:19:33 2020

@<TRIPOS>MOLECULE
FXQ-2009-CMC-219-10AF
   34    36     1     0     0
SMALL
MULLIKEN_CHARGES
INVALID_CHARGES
Gaussian 16 #p B3LYP/6-31G* opt
@<TRIPOS>ATOM
      1 N          -7.978655   -2.977066   -0.533916 N.1       1 <1>        -0.485900 
      2 C          -6.905171   -2.547663   -0.397703 C.1       1 <1>         0.226800 
      3 C          -5.585102   -2.021748   -0.230375 C.ar      1 <1>         0.130900 
      4 C          -5.350375   -0.638946   -0.306307 C.ar      1 <1>        -0.153600 
      5 C          -4.073920   -0.114666   -0.145723 C.ar      1 <1>        -0.159500 
      6 C          -2.989179   -0.977563    0.098043 C.ar      1 <1>         0.382600 
      7 N          -1.670819   -0.557151    0.273702 N.pl3     1 <1>        -0.766000 
      8 C          -1.082037    0.690172    0.265458 C.ar      1 <1>         0.698100 
      9 N          -1.823659    1.786296    0.057558 N.ar      1 <1>        -0.485000 
     10 C          -1.142483    2.940083    0.071711 C.ar      1 <1>         0.067600 
     11 C           0.224730    3.032942    0.282028 C.ar      1 <1>        -0.222400 
     12 C           0.882205    1.806882    0.487100 C.ar      1 <1>         0.536500 
     13 O           2.216748    1.691334    0.709484 O.3       1 <1>        -0.528800 
     14 C           3.016829    2.834112    0.741356 C.ar      1 <1>         0.311000 
     15 C           3.627999    3.269909   -0.432843 C.ar      1 <1>        -0.148900 
     16 C           4.489959    4.366719   -0.380926 C.ar      1 <1>        -0.141100 
     17 C           4.734790    5.013471    0.832622 C.ar      1 <1>        -0.120800 
     18 C           4.118214    4.559970    2.000929 C.ar      1 <1>        -0.141100 
     19 C           3.254301    3.464333    1.961406 C.ar      1 <1>        -0.149000 
     20 N           0.246889    0.645853    0.480894 N.ar      1 <1>        -0.543500 
     21 C          -3.225078   -2.365821    0.174243 C.ar      1 <1>        -0.205700 
     22 C          -4.499797   -2.882166    0.013275 C.ar      1 <1>        -0.140600 
     23 H          -6.182393    0.032457   -0.494034 H         1 <1>         0.157200 
     24 H          -3.900518    0.950011   -0.205321 H         1 <1>         0.189200 
     25 H          -0.990136   -1.287049    0.441983 H         1 <1>         0.349200 
     26 H          -1.732515    3.839284   -0.095785 H         1 <1>         0.156000 
     27 H           0.742777    3.982070    0.287049 H         1 <1>         0.163700 
     28 H           3.432702    2.746128   -1.363387 H         1 <1>         0.150600 
     29 H           4.973022    4.712080   -1.290569 H         1 <1>         0.143800 
     30 H           5.408378    5.864734    0.868580 H         1 <1>         0.139600 
     31 H           4.311426    5.056104    2.947877 H         1 <1>         0.143800 
     32 H           2.773423    3.088805    2.859182 H         1 <1>         0.150600 
     33 H          -2.393446   -3.041117    0.362233 H         1 <1>         0.137400 
     34 H          -4.664478   -3.953095    0.074791 H         1 <1>         0.157300 
@<TRIPOS>BOND
     1   16   29 1    
     2   15   28 1    
     3   15   16 ar   
     4   14   15 ar   
     5   16   17 ar   
     6   21   33 1    
     7   22   34 1    
     8   17   30 1    
     9   21   22 ar   
    10    6   21 ar   
    11   22    3 ar   
    12    7   25 1    
    13   17   18 ar   
    14    7    6 1    
    15    8    7 1    
    16    2    1 3    
    17    6    5 ar   
    18   13   14 1    
    19   14   19 ar   
    20    3    2 1    
    21    3    4 ar   
    22   20    8 ar   
    23   12   20 ar   
    24   13   12 1    
    25    8    9 ar   
    26   12   11 ar   
    27    5    4 ar   
    28    5   24 1    
    29    4   23 1    
    30    9   10 ar   
    31   11   10 ar   
    32   11   27 1    
    33   10   26 1    
    34   18   19 ar   
    35   18   31 1    
    36   19   32 1    
@<TRIPOS>SUBSTRUCTURE
     1 ****       28 TEMP              0 ****  ****    0 ROOT 
