#	Name:			FXQ-2009-CMC-219-10R
#	Creating user name:	Administrator
#	Creation time:		Sun Jul 05 16:13:31 2020

#	Modifying user name:	Administrator
#	Modification time:	Sun Jul 05 16:19:33 2020

@<TRIPOS>MOLECULE
FXQ-2009-CMC-219-10R
   43    46     1     0     0
SMALL
MULLIKEN_CHARGES
INVALID_CHARGES
Gaussian 16 #p B3LYP/6-31G* opt
@<TRIPOS>ATOM
      1 C          -1.937007    4.200323   -0.155793 C.3       1 <1>        -0.514200 
      2 C          -1.124546    2.955054    0.073446 C.ar      1 <1>         0.343400 
      3 C           0.245598    3.000809    0.289050 C.ar      1 <1>        -0.252800 
      4 C           0.876703    1.764091    0.490531 C.ar      1 <1>         0.585800 
      5 O           2.218896    1.789132    0.702024 O.3       1 <1>        -0.560500 
      6 C           2.902692    0.595168    0.894174 C.ar      1 <1>         0.360100 
      7 C           3.323891   -0.137069   -0.237626 C.ar      1 <1>        -0.140200 
      8 C           4.086130   -1.266942   -0.078307 C.ar      1 <1>        -0.207100 
      9 C           4.463931   -1.714901    1.215307 C.ar      1 <1>         0.154000 
     10 C           5.254414   -2.881068    1.395116 C.ar      1 <1>        -0.196200 
     11 C           5.617166   -3.305541    2.652491 C.ar      1 <1>        -0.130400 
     12 C           5.201926   -2.575494    3.790703 C.ar      1 <1>        -0.133200 
     13 C           4.435455   -1.439218    3.656280 C.ar      1 <1>        -0.194200 
     14 C           4.044192   -0.975468    2.372382 C.ar      1 <1>         0.122900 
     15 C           3.250246    0.192897    2.166214 C.ar      1 <1>        -0.191300 
     16 CL          2.703092    1.141427    3.533823 Cl        1 <1>         0.012900 
     17 N           0.239613    0.609465    0.480206 N.ar      1 <1>        -0.566300 
     18 C          -1.093939    0.683253    0.263666 C.ar      1 <1>         0.701600 
     19 N          -1.703198   -0.554886    0.270582 N.pl3     1 <1>        -0.773000 
     20 C          -3.028742   -0.951281    0.095123 C.ar      1 <1>         0.382800 
     21 C          -4.095660   -0.068713   -0.156846 C.ar      1 <1>        -0.159300 
     22 C          -5.381595   -0.568756   -0.318797 C.ar      1 <1>        -0.153900 
     23 C          -5.643558   -1.946274   -0.236175 C.ar      1 <1>         0.131000 
     24 C          -6.972978   -2.447377   -0.405795 C.1       1 <1>         0.226700 
     25 N          -8.054251   -2.856236   -0.544161 N.1       1 <1>        -0.485800 
     26 C          -4.576149   -2.826390    0.016270 C.ar      1 <1>        -0.140700 
     27 C          -3.292040   -2.334113    0.178519 C.ar      1 <1>        -0.205800 
     28 N          -1.807552    1.789492    0.058433 N.ar      1 <1>        -0.542700 
     29 H          -2.713374    4.288960    0.612457 H         1 <1>         0.180800 
     30 H          -2.447988    4.143511   -1.123424 H         1 <1>         0.179100 
     31 H          -1.316006    5.099681   -0.135655 H         1 <1>         0.160400 
     32 H           0.808976    3.925003    0.308652 H         1 <1>         0.154200 
     33 H           3.034240    0.221355   -1.219803 H         1 <1>         0.149300 
     34 H           4.413421   -1.832295   -0.946617 H         1 <1>         0.143100 
     35 H           5.568622   -3.433837    0.513257 H         1 <1>         0.137000 
     36 H           6.221941   -4.199633    2.774622 H         1 <1>         0.137800 
     37 H           5.490789   -2.914552    4.781595 H         1 <1>         0.139200 
     38 H           4.121710   -0.885994    4.534046 H         1 <1>         0.159100 
     39 H          -1.037735   -1.296513    0.447806 H         1 <1>         0.348800 
     40 H          -3.899945    0.991792   -0.220398 H         1 <1>         0.186700 
     41 H          -6.199891    0.117645   -0.512773 H         1 <1>         0.156800 
     42 H          -4.761896   -3.893396    0.083626 H         1 <1>         0.157200 
     43 H          -2.474592   -3.024480    0.373765 H         1 <1>         0.137000 
@<TRIPOS>BOND
     1   13   38 1    
     2   12   37 1    
     3   15   16 1    
     4   13   12 ar   
     5   14   13 ar   
     6   12   11 ar   
     7    1   29 1    
     8   15   14 ar   
     9    6   15 ar   
    10   24   25 3    
    11   14    9 ar   
    12   23   24 1    
    13   22   41 1    
    14   22   23 ar   
    15   21   22 ar   
    16   26   23 ar   
    17   21   40 1    
    18   20   21 ar   
    19   26   42 1    
    20   27   26 ar   
    21    1   31 1    
    22    2    1 1    
    23    1   30 1    
    24   20   27 ar   
    25   19   20 1    
    26   27   43 1    
    27   11   36 1    
    28   11   10 ar   
    29    2   28 ar   
    30   18   28 ar   
    31    3    2 ar   
    32   18   19 1    
    33   19   39 1    
    34   17   18 ar   
    35    3   32 1    
    36    4    3 ar   
    37    4   17 ar   
    38    5    4 1    
    39    5    6 1    
    40    6    7 ar   
    41    9   10 ar   
    42    9    8 ar   
    43   10   35 1    
    44    7    8 ar   
    45    7   33 1    
    46    8   34 1    
@<TRIPOS>SUBSTRUCTURE
     1 ****       41 TEMP              0 ****  ****    0 ROOT 
