#	Name:			FXQ-2009-CMC-219-10C
#	Creating user name:	Administrator
#	Creation time:		Sun Jul 05 16:13:29 2020

#	Modifying user name:	Administrator
#	Modification time:	Sun Jul 05 16:19:33 2020

@<TRIPOS>MOLECULE
FXQ-2009-CMC-219-10C
   40    43     1     0     0
SMALL
MULLIKEN_CHARGES
INVALID_CHARGES
Gaussian 16 #p B3LYP/6-31G* opt
@<TRIPOS>ATOM
      1 N          -7.976274   -2.978020   -0.550033 N.1       1 <1>        -0.485800 
      2 C          -6.903000   -2.548733   -0.411191 C.1       1 <1>         0.226900 
      3 C          -5.583469   -2.022670   -0.240316 C.ar      1 <1>         0.130900 
      4 C          -5.348862   -0.639766   -0.315208 C.ar      1 <1>        -0.153500 
      5 C          -4.072932   -0.115202   -0.151346 C.ar      1 <1>        -0.159500 
      6 C          -2.988671   -0.978091    0.094595 C.ar      1 <1>         0.382600 
      7 N          -1.670694   -0.557320    0.273501 N.pl3     1 <1>        -0.766600 
      8 C          -1.082200    0.690065    0.265307 C.ar      1 <1>         0.697900 
      9 N          -1.823394    1.786048    0.056490 N.ar      1 <1>        -0.484800 
     10 C          -1.142394    2.939889    0.069865 C.ar      1 <1>         0.066800 
     11 C           0.224197    3.033474    0.284297 C.ar      1 <1>        -0.216800 
     12 C           0.881088    1.807810    0.490796 C.ar      1 <1>         0.539800 
     13 O           2.218126    1.690117    0.705734 O.3       1 <1>        -0.533300 
     14 C           3.014438    2.832466    0.795678 C.ar      1 <1>         0.240200 
     15 C           3.105240    3.506775    1.990229 C.ar      1 <1>        -0.158700 
     16 C           3.966535    4.624421    2.098771 C.ar      1 <1>        -0.149600 
     17 C           4.715179    5.034460    1.019237 C.ar      1 <1>        -0.177900 
     18 C           4.644531    4.343350   -0.220400 C.ar      1 <1>         0.122000 
     19 C           5.409728    4.738552   -1.350505 C.ar      1 <1>        -0.194800 
     20 C           5.325509    4.047913   -2.538000 C.ar      1 <1>        -0.129200 
     21 C           4.472483    2.923044   -2.651610 C.ar      1 <1>        -0.135000 
     22 C           3.713926    2.509509   -1.579666 C.ar      1 <1>        -0.188300 
     23 C           3.776605    3.208459   -0.345163 C.ar      1 <1>         0.113000 
     24 N           0.246845    0.646327    0.481946 N.ar      1 <1>        -0.546000 
     25 C          -3.224380   -2.366316    0.169804 C.ar      1 <1>        -0.205800 
     26 C          -4.498576   -2.882930    0.005667 C.ar      1 <1>        -0.140600 
     27 H          -6.180665    0.031488   -0.504677 H         1 <1>         0.157300 
     28 H          -3.899703    0.949572   -0.210119 H         1 <1>         0.189400 
     29 H          -0.990377   -1.287349    0.443772 H         1 <1>         0.349100 
     30 H          -1.731574    3.838640   -0.102613 H         1 <1>         0.156500 
     31 H           0.742591    3.982277    0.288070 H         1 <1>         0.164700 
     32 H           2.519021    3.170244    2.839520 H         1 <1>         0.148700 
     33 H           4.032161    5.153449    3.045022 H         1 <1>         0.141900 
     34 H           5.377068    5.892561    1.102647 H         1 <1>         0.136600 
     35 H           6.067684    5.599296   -1.258707 H         1 <1>         0.136400 
     36 H           5.917522    4.361576   -3.393344 H         1 <1>         0.137400 
     37 H           4.420290    2.381790   -3.592109 H         1 <1>         0.138500 
     38 H           3.069815    1.640432   -1.660253 H         1 <1>         0.154600 
     39 H          -2.393093   -3.041543    0.359496 H         1 <1>         0.137400 
     40 H          -4.662979   -3.953943    0.066432 H         1 <1>         0.157400 
@<TRIPOS>BOND
     1   10   30 1    
     2    4   27 1    
     3   10    9 ar   
     4   11   10 ar   
     5    5   28 1    
     6   11   31 1    
     7    8    9 ar   
     8    5    4 ar   
     9    4    3 ar   
    10   12   11 ar   
    11   20   36 1    
    12   19   35 1    
    13    6    5 ar   
    14   19   20 ar   
    15   21   20 ar   
    16    2    1 3    
    17   18   19 ar   
    18   17   34 1    
    19    3    2 1    
    20   21   37 1    
    21   22   21 ar   
    22   18   17 ar   
    23   23   18 ar   
    24   16   17 ar   
    25    3   26 ar   
    26    8    7 1    
    27   24    8 ar   
    28   23   22 ar   
    29   22   38 1    
    30   14   23 ar   
    31   16   33 1    
    32   15   16 ar   
    33   12   24 ar   
    34   13   12 1    
    35    7    6 1    
    36    6   25 ar   
    37   14   15 ar   
    38   14   13 1    
    39   15   32 1    
    40    7   29 1    
    41   26   25 ar   
    42   26   40 1    
    43   25   39 1    
@<TRIPOS>SUBSTRUCTURE
     1 ****       36 TEMP              0 ****  ****    0 ROOT 
