#	Name:			FXQ-2009-CMC-219-10X
#	Creating user name:	Administrator
#	Creation time:		Sun Jul 05 16:13:31 2020

#	Modifying user name:	Administrator
#	Modification time:	Sun Jul 05 16:19:33 2020

@<TRIPOS>MOLECULE
FXQ-2009-CMC-219-10X
   43    46     1     0     0
SMALL
MULLIKEN_CHARGES
INVALID_CHARGES
Gaussian 16 #p B3LYP/6-31G* opt
@<TRIPOS>ATOM
      1 C          -1.936963    4.199798   -0.159654 C.3       1 <1>        -0.514300 
      2 C          -1.124812    2.954962    0.072206 C.ar      1 <1>         0.343400 
      3 C           0.245309    3.001399    0.290800 C.ar      1 <1>        -0.252900 
      4 C           0.874744    1.764981    0.493319 C.ar      1 <1>         0.587400 
      5 O           2.220155    1.787547    0.698417 O.3       1 <1>        -0.563600 
      6 C           2.890492    0.595429    0.938742 C.ar      1 <1>         0.333500 
      7 C           3.520567   -0.038871   -0.153886 C.ar      1 <1>        -0.149700 
      8 C           4.275293   -1.167592    0.046838 C.ar      1 <1>        -0.201000 
      9 C           4.432899   -1.711961    1.348644 C.ar      1 <1>         0.154700 
     10 C           5.211482   -2.879608    1.566110 C.ar      1 <1>        -0.226100 
     11 C           5.351876   -3.387850    2.833662 C.ar      1 <1>         0.084000 
     12 BR          6.398743   -4.959543    3.121005 Br        1 <1>        -0.119400 
     13 C           4.733572   -2.770213    3.943449 C.ar      1 <1>        -0.150400 
     14 C           3.975135   -1.637673    3.757713 C.ar      1 <1>        -0.187600 
     15 C           3.798667   -1.072674    2.466721 C.ar      1 <1>         0.093800 
     16 C           3.025397    0.097970    2.216717 C.ar      1 <1>        -0.005800 
     17 BR          2.155098    1.009745    3.643494 Br        1 <1>        -0.097200 
     18 N           0.239670    0.610070    0.482280 N.ar      1 <1>        -0.565600 
     19 C          -1.093784    0.682806    0.263891 C.ar      1 <1>         0.702600 
     20 N          -1.702748   -0.554663    0.269804 N.pl3     1 <1>        -0.773200 
     21 C          -3.027690   -0.951555    0.086664 C.ar      1 <1>         0.382600 
     22 C          -3.289967   -2.334795    0.164656 C.ar      1 <1>        -0.205900 
     23 C          -4.572957   -2.827487   -0.005287 C.ar      1 <1>        -0.140600 
     24 C          -5.639782   -1.947453   -0.260028 C.ar      1 <1>         0.131200 
     25 C          -6.968118   -2.448774   -0.437488 C.1       1 <1>         0.227000 
     26 N          -8.048514   -2.857789   -0.582159 N.1       1 <1>        -0.485200 
     27 C          -5.378661   -0.569525   -0.337137 C.ar      1 <1>        -0.153800 
     28 C          -4.093869   -0.068917   -0.167399 C.ar      1 <1>        -0.159200 
     29 N          -1.806959    1.789307    0.057219 N.ar      1 <1>        -0.542200 
     30 H          -1.316833    5.099673   -0.135308 H         1 <1>         0.160600 
     31 H          -2.442700    4.143786   -1.130198 H         1 <1>         0.179900 
     32 H          -2.717612    4.286819    0.604405 H         1 <1>         0.181100 
     33 H           0.808286    3.925756    0.310885 H         1 <1>         0.154200 
     34 H           3.394378    0.393163   -1.141090 H         1 <1>         0.154500 
     35 H           4.762799   -1.657671   -0.791197 H         1 <1>         0.148800 
     36 H           5.691630   -3.362344    0.721200 H         1 <1>         0.158600 
     37 H           4.861006   -3.193026    4.933765 H         1 <1>         0.161200 
     38 H           3.499460   -1.162574    4.608027 H         1 <1>         0.166900 
     39 H          -1.038043   -1.296884    0.447234 H         1 <1>         0.348700 
     40 H          -2.472940   -3.025143    0.361192 H         1 <1>         0.137400 
     41 H          -4.758141   -3.894981    0.057721 H         1 <1>         0.157900 
     42 H          -6.196649    0.116810   -0.532907 H         1 <1>         0.157100 
     43 H          -3.898915    0.991913   -0.227132 H         1 <1>         0.186600 
@<TRIPOS>BOND
     1   14   38 1    
     2   13   37 1    
     3   16   17 1    
     4   14   13 ar   
     5   15   14 ar   
     6   13   11 ar   
     7   25   26 3    
     8    1   32 1    
     9   24   25 1    
    10   27   42 1    
    11   16   15 ar   
    12    6   16 ar   
    13   27   24 ar   
    14   23   24 ar   
    15   15    9 ar   
    16   23   41 1    
    17   28   27 ar   
    18   22   23 ar   
    19   11   12 1    
    20   11   10 ar   
    21   28   43 1    
    22   21   28 ar   
    23   21   22 ar   
    24   22   40 1    
    25   20   21 1    
    26   20   39 1    
    27   19   20 1    
    28   19   29 ar   
    29    2   29 ar   
    30    2    1 1    
    31    1   30 1    
    32    1   31 1    
    33   18   19 ar   
    34    3    2 ar   
    35    4   18 ar   
    36    4    3 ar   
    37    3   33 1    
    38    5    4 1    
    39    5    6 1    
    40    6    7 ar   
    41    9   10 ar   
    42    9    8 ar   
    43   10   36 1    
    44    7    8 ar   
    45    7   34 1    
    46    8   35 1    
@<TRIPOS>SUBSTRUCTURE
     1 ****       32 TEMP              0 ****  ****    0 ROOT 
