#	Name:			FXQ-2009-CMC-219-10Z
#	Creating user name:	Administrator
#	Creation time:		Sun Jul 05 16:13:31 2020

#	Modifying user name:	Administrator
#	Modification time:	Sun Jul 05 16:19:33 2020

@<TRIPOS>MOLECULE
FXQ-2009-CMC-219-10Z
   40    43     1     0     0
SMALL
MULLIKEN_CHARGES
INVALID_CHARGES
Gaussian 16 #p B3LYP/6-31G* opt
@<TRIPOS>ATOM
      1 N          -7.972399   -2.980858   -0.564967 N.1       1 <1>        -0.485000 
      2 C          -6.899813   -2.550945   -0.422847 C.1       1 <1>         0.227300 
      3 C          -5.580956   -2.024064   -0.248369 C.ar      1 <1>         0.131300 
      4 C          -4.497426   -2.883411    0.006426 C.ar      1 <1>        -0.140500 
      5 C          -3.223748   -2.366172    0.173608 C.ar      1 <1>        -0.205600 
      6 C          -2.987910   -0.978488    0.092713 C.ar      1 <1>         0.382300 
      7 N          -1.669784   -0.557112    0.274071 N.pl3     1 <1>        -0.766800 
      8 C          -1.082227    0.689492    0.265434 C.ar      1 <1>         0.700500 
      9 N          -1.821991    1.786144    0.054172 N.ar      1 <1>        -0.483600 
     10 C          -1.142546    2.940248    0.070193 C.ar      1 <1>         0.067900 
     11 C           0.224252    3.033653    0.285925 C.ar      1 <1>        -0.212100 
     12 C           0.876872    1.807718    0.491325 C.ar      1 <1>         0.546800 
     13 O           2.219656    1.688954    0.703810 O.3       1 <1>        -0.526500 
     14 C           3.021286    2.816281    0.740499 C.ar      1 <1>         0.289600 
     15 C           3.766346    3.125494   -0.420495 C.ar      1 <1>        -0.153400 
     16 C           4.645779    4.179499   -0.415228 C.ar      1 <1>        -0.197900 
     17 C           4.820435    4.972780    0.749514 C.ar      1 <1>         0.153900 
     18 C           5.726790    6.065860    0.762745 C.ar      1 <1>        -0.224800 
     19 C           5.881689    6.818605    1.900497 C.ar      1 <1>         0.084400 
     20 BR          7.099800    8.288357    1.913649 Br        1 <1>        -0.114600 
     21 C           5.152272    6.528996    3.075158 C.ar      1 <1>        -0.149300 
     22 C           4.268695    5.474727    3.086970 C.ar      1 <1>        -0.186800 
     23 C           4.072586    4.666031    1.936053 C.ar      1 <1>         0.097100 
     24 C           3.172011    3.561568    1.892815 C.ar      1 <1>        -0.013700 
     25 BR          2.148236    3.082890    3.424461 Br        1 <1>        -0.084900 
     26 N           0.247344    0.647314    0.483004 N.ar      1 <1>        -0.543400 
     27 C          -4.070778   -0.116455   -0.161786 C.ar      1 <1>        -0.159300 
     28 C          -5.346104   -0.641672   -0.328599 C.ar      1 <1>        -0.153400 
     29 H          -4.662237   -3.954019    0.071802 H         1 <1>         0.158100 
     30 H          -2.393461   -3.040517    0.370329 H         1 <1>         0.138100 
     31 H          -0.990461   -1.286874    0.449385 H         1 <1>         0.350100 
     32 H          -1.732267    3.839113   -0.099545 H         1 <1>         0.158200 
     33 H           0.741256    3.983349    0.296167 H         1 <1>         0.161800 
     34 H           3.627368    2.502733   -1.298225 H         1 <1>         0.161200 
     35 H           5.220978    4.417563   -1.305207 H         1 <1>         0.152400 
     36 H           6.292540    6.297096   -0.133756 H         1 <1>         0.160800 
     37 H           5.293966    7.139916    3.959679 H         1 <1>         0.163500 
     38 H           3.708059    5.251722    3.987417 H         1 <1>         0.168800 
     39 H          -3.897570    0.948048   -0.224473 H         1 <1>         0.189500 
     40 H          -6.176977    0.028855   -0.524737 H         1 <1>         0.157900 
@<TRIPOS>BOND
     1    5   30 1    
     2    7   31 1    
     3   15   34 1    
     4    4   29 1    
     5   13   14 1    
     6   12   13 1    
     7   14   15 ar   
     8   15   16 ar   
     9   16   35 1    
    10    5    4 ar   
    11    6    5 ar   
    12   14   24 ar   
    13   16   17 ar   
    14   26   12 ar   
    15    8   26 ar   
    16    4    3 ar   
    17    7    6 1    
    18    7    8 1    
    19   24   23 ar   
    20   24   25 1    
    21   12   11 ar   
    22   17   23 ar   
    23   17   18 ar   
    24   18   36 1    
    25    6   27 ar   
    26   23   22 ar   
    27   18   19 ar   
    28    8    9 ar   
    29   22   38 1    
    30   22   21 ar   
    31   19   21 ar   
    32   19   20 1    
    33    3    2 1    
    34    3   28 ar   
    35   21   37 1    
    36   11   33 1    
    37   11   10 ar   
    38    2    1 3    
    39   27   28 ar   
    40   27   39 1    
    41    9   10 ar   
    42   28   40 1    
    43   10   32 1    
@<TRIPOS>SUBSTRUCTURE
     1 ****       31 TEMP              0 ****  ****    0 ROOT 
