#	Name:			FXQ-2009-CMC-219-10AA
#	Creating user name:	Administrator
#	Creation time:		Sun Jul 05 16:13:29 2020

#	Modifying user name:	Administrator
#	Modification time:	Sun Jul 05 16:19:33 2020

@<TRIPOS>MOLECULE
FXQ-2009-CMC-219-10AA
   43    46     1     0     0
SMALL
MULLIKEN_CHARGES
INVALID_CHARGES
Gaussian 16 #p B3LYP/6-31G* opt
@<TRIPOS>ATOM
      1 C          -1.980853    4.192213   -0.152835 C.3       1 <1>        -0.514300 
      2 C          -1.151823    2.956187    0.071154 C.ar      1 <1>         0.342100 
      3 C           0.222472    3.026673    0.281377 C.ar      1 <1>        -0.261100 
      4 C           0.879893    1.801983    0.479880 C.ar      1 <1>         0.540800 
      5 O           2.215781    1.693154    0.716776 O.3       1 <1>        -0.536300 
      6 C           3.040255    2.805902    0.583722 C.ar      1 <1>         0.323900 
      7 C           3.384561    3.263117   -0.711413 C.ar      1 <1>        -0.152600 
      8 C           4.266206    4.309610   -0.847509 C.ar      1 <1>        -0.200000 
      9 C           4.842304    4.934694    0.292292 C.ar      1 <1>         0.144400 
     10 C           5.755973    6.015248    0.172753 C.ar      1 <1>        -0.219800 
     11 C           6.291254    6.586227    1.301916 C.ar      1 <1>         0.079200 
     12 BR          7.520016    8.041587    1.141130 Br        1 <1>        -0.122000 
     13 C           5.956547    6.123869    2.596101 C.ar      1 <1>        -0.151200 
     14 C           5.073895    5.077359    2.732389 C.ar      1 <1>        -0.189500 
     15 C           4.492165    4.454153    1.596031 C.ar      1 <1>         0.135500 
     16 C           3.575458    3.376314    1.712847 C.ar      1 <1>        -0.234900 
     17 N           0.251292    0.638767    0.476604 N.ar      1 <1>        -0.547300 
     18 C          -1.078991    0.690351    0.266013 C.ar      1 <1>         0.698300 
     19 N          -1.670877   -0.556290    0.277193 N.pl3     1 <1>        -0.770700 
     20 C          -2.990126   -0.974878    0.105972 C.ar      1 <1>         0.382700 
     21 C          -4.074204   -0.110557   -0.136510 C.ar      1 <1>        -0.159600 
     22 C          -5.351989   -0.632689   -0.293132 C.ar      1 <1>        -0.153800 
     23 C          -5.589137   -2.014972   -0.214214 C.ar      1 <1>         0.130900 
     24 C          -6.910634   -2.538363   -0.377673 C.1       1 <1>         0.226700 
     25 N          -7.985763   -2.964991   -0.510572 N.1       1 <1>        -0.485800 
     26 C          -4.504677   -2.876759    0.028296 C.ar      1 <1>        -0.140700 
     27 C          -3.228629   -2.362512    0.185261 C.ar      1 <1>        -0.205800 
     28 N          -1.816173    1.785586    0.058938 N.ar      1 <1>        -0.540000 
     29 H          -2.488750    4.133496   -1.122055 H         1 <1>         0.180400 
     30 H          -1.372830    5.100388   -0.127192 H         1 <1>         0.159400 
     31 H          -2.760319    4.266097    0.613571 H         1 <1>         0.181100 
     32 H           0.747394    3.972148    0.298880 H         1 <1>         0.157000 
     33 H           2.954294    2.771469   -1.578071 H         1 <1>         0.154100 
     34 H           4.539785    4.666187   -1.837011 H         1 <1>         0.147600 
     35 H           6.026093    6.382922   -0.811885 H         1 <1>         0.157200 
     36 H           6.398598    6.597443    3.465514 H         1 <1>         0.159400 
     37 H           4.812549    4.715876    3.723562 H         1 <1>         0.147100 
     38 H           3.301514    2.992455    2.690912 H         1 <1>         0.151700 
     39 H          -0.991029   -1.287153    0.444986 H         1 <1>         0.349000 
     40 H          -3.898100    0.953411   -0.198255 H         1 <1>         0.185500 
     41 H          -6.183429    0.039797   -0.479927 H         1 <1>         0.156400 
     42 H          -4.670995   -3.947307    0.092237 H         1 <1>         0.157500 
     43 H          -2.397968   -3.039087    0.372372 H         1 <1>         0.137500 
@<TRIPOS>BOND
     1    8   34 1    
     2    7   33 1    
     3   10   35 1    
     4    7    8 ar   
     5    8    9 ar   
     6    6    7 ar   
     7    9   10 ar   
     8   10   11 ar   
     9    9   15 ar   
    10    1   29 1    
    11    5    6 1    
    12    6   16 ar   
    13   27   43 1    
    14    4    5 1    
    15   19   39 1    
    16    4   17 ar   
    17   18   17 ar   
    18    3    4 ar   
    19   26   42 1    
    20   27   26 ar   
    21   20   27 ar   
    22   18   19 1    
    23   19   20 1    
    24   28   18 ar   
    25   26   23 ar   
    26   20   21 ar   
    27   11   12 1    
    28    3   32 1    
    29    2    3 ar   
    30    2   28 ar   
    31   23   24 1    
    32   22   23 ar   
    33   21   22 ar   
    34   21   40 1    
    35    2    1 1    
    36   24   25 3    
    37   22   41 1    
    38   11   13 ar   
    39    1   30 1    
    40    1   31 1    
    41   15   16 ar   
    42   15   14 ar   
    43   16   38 1    
    44   13   14 ar   
    45   13   36 1    
    46   14   37 1    
@<TRIPOS>SUBSTRUCTURE
     1 ****       39 TEMP              0 ****  ****    0 ROOT 
