#	Name:			FXQ-2009-CMC-219-10H
#	Creating user name:	Administrator
#	Creation time:		Sun Jul 05 16:13:29 2020

#	Modifying user name:	Administrator
#	Modification time:	Sun Jul 05 16:19:33 2020

@<TRIPOS>MOLECULE
FXQ-2009-CMC-219-10H
   43    46     1     0     0
SMALL
MULLIKEN_CHARGES
INVALID_CHARGES
Gaussian 16 #p B3LYP/6-31G* opt
@<TRIPOS>ATOM
      1 C          -1.936540    4.200404   -0.157877 C.3       1 <1>        -0.514300 
      2 C          -1.124877    2.954869    0.072885 C.ar      1 <1>         0.343700 
      3 C           0.245719    3.000000    0.287751 C.ar      1 <1>        -0.257200 
      4 C           0.877465    1.763211    0.492173 C.ar      1 <1>         0.576900 
      5 O           2.220393    1.790398    0.699218 O.3       1 <1>        -0.573000 
      6 C           2.905339    0.598565    0.949834 C.ar      1 <1>         0.298500 
      7 C           2.967633    0.109124    2.229438 C.ar      1 <1>        -0.153000 
      8 C           3.727504   -1.049931    2.499548 C.ar      1 <1>        -0.179800 
      9 C           4.404964   -1.680450    1.483141 C.ar      1 <1>         0.034900 
     10 BR          5.413926   -3.250086    1.918596 Br        1 <1>        -0.123200 
     11 C           4.375504   -1.197920    0.142613 C.ar      1 <1>         0.089200 
     12 C           5.065025   -1.811118   -0.936840 C.ar      1 <1>        -0.191300 
     13 C           4.996563   -1.288736   -2.208284 C.ar      1 <1>        -0.129400 
     14 C           4.237558   -0.123720   -2.467111 C.ar      1 <1>        -0.130700 
     15 C           3.555338    0.498524   -1.447380 C.ar      1 <1>        -0.187100 
     16 C           3.599804   -0.017583   -0.125741 C.ar      1 <1>         0.118600 
     17 N           0.238522    0.609468    0.485369 N.ar      1 <1>        -0.562400 
     18 C          -1.094420    0.683200    0.264513 C.ar      1 <1>         0.700500 
     19 N          -1.702932   -0.554659    0.266493 N.pl3     1 <1>        -0.772800 
     20 C          -3.027842   -0.951699    0.083788 C.ar      1 <1>         0.382200 
     21 C          -3.287601   -2.336183    0.147761 C.ar      1 <1>        -0.205900 
     22 C          -4.570822   -2.828937   -0.019869 C.ar      1 <1>        -0.140700 
     23 C          -5.640498   -1.947698   -0.258088 C.ar      1 <1>         0.131200 
     24 C          -6.969304   -2.448892   -0.432421 C.1       1 <1>         0.227000 
     25 N          -8.050304   -2.857428   -0.574121 N.1       1 <1>        -0.485200 
     26 C          -5.381821   -0.568572   -0.321964 C.ar      1 <1>        -0.153800 
     27 C          -4.096840   -0.068016   -0.154581 C.ar      1 <1>        -0.159300 
     28 N          -1.808296    1.789923    0.059533 N.ar      1 <1>        -0.542200 
     29 H          -1.315896    5.099896   -0.134416 H         1 <1>         0.160100 
     30 H          -2.443280    4.144634   -1.127796 H         1 <1>         0.180300 
     31 H          -2.716430    4.288072    0.606836 H         1 <1>         0.180500 
     32 H           0.809024    3.924491    0.303755 H         1 <1>         0.152400 
     33 H           2.433176    0.612578    3.027967 H         1 <1>         0.150300 
     34 H           3.775775   -1.440112    3.509795 H         1 <1>         0.160300 
     35 H           5.650685   -2.701777   -0.739516 H         1 <1>         0.159600 
     36 H           5.532354   -1.773723   -3.019277 H         1 <1>         0.140000 
     37 H           4.195878    0.281003   -3.474455 H         1 <1>         0.139000 
     38 H           2.979373    1.397745   -1.635943 H         1 <1>         0.146700 
     39 H          -1.035434   -1.297746    0.429742 H         1 <1>         0.349600 
     40 H          -2.468232   -3.027418    0.331316 H         1 <1>         0.138300 
     41 H          -4.753980   -3.897313    0.032250 H         1 <1>         0.158000 
     42 H          -6.201940    0.118476   -0.505488 H         1 <1>         0.157000 
     43 H          -3.903555    0.993696   -0.204901 H         1 <1>         0.186300 
@<TRIPOS>BOND
     1   13   36 1    
     2   14   37 1    
     3   14   13 ar   
     4   12   13 ar   
     5   15   14 ar   
     6   12   35 1    
     7   11   12 ar   
     8   15   38 1    
     9   16   15 ar   
    10   16   11 ar   
    11    6   16 ar   
    12   11    9 ar   
    13   24   25 3    
    14   23   24 1    
    15    1   30 1    
    16   22   41 1    
    17   22   23 ar   
    18   21   22 ar   
    19   26   23 ar   
    20   21   40 1    
    21   20   21 ar   
    22   26   42 1    
    23   27   26 ar   
    24   20   27 ar   
    25   19   20 1    
    26   27   43 1    
    27   19   39 1    
    28   18   19 1    
    29   18   28 ar   
    30   17   18 ar   
    31    2   28 ar   
    32    4   17 ar   
    33    2    1 1    
    34    3    2 ar   
    35    4    3 ar   
    36    5    4 1    
    37    1   29 1    
    38    1   31 1    
    39    3   32 1    
    40    6    5 1    
    41    6    7 ar   
    42    9   10 1    
    43    9    8 ar   
    44    7    8 ar   
    45    7   33 1    
    46    8   34 1    
@<TRIPOS>SUBSTRUCTURE
     1 ****       36 TEMP              0 ****  ****    0 ROOT 
