#	Name:			FXQ-2009-CMC-219-10L
#	Creating user name:	Administrator
#	Creation time:		Sun Jul 05 16:13:29 2020

#	Modifying user name:	Administrator
#	Modification time:	Sun Jul 05 16:19:33 2020

@<TRIPOS>MOLECULE
FXQ-2009-CMC-219-10L
   43    46     1     0     0
SMALL
MULLIKEN_CHARGES
INVALID_CHARGES
Gaussian 16 #p B3LYP/6-31G* opt
@<TRIPOS>ATOM
      1 C           0.962276    4.360301    0.236550 C.3       1 <1>        -0.538100 
      2 C           0.237675    3.042669    0.289608 C.ar      1 <1>         0.120500 
      3 C          -1.132535    2.934494    0.065915 C.ar      1 <1>         0.012600 
      4 N          -1.817974    1.784235    0.052413 N.ar      1 <1>        -0.477500 
      5 C          -1.090711    0.683249    0.264944 C.ar      1 <1>         0.694900 
      6 N          -1.679994   -0.564239    0.259326 N.pl3     1 <1>        -0.768600 
      7 C          -2.996429   -0.980454    0.062046 C.ar      1 <1>         0.382900 
      8 C          -4.074950   -0.112098   -0.190339 C.ar      1 <1>        -0.160600 
      9 C          -5.350775   -0.631011   -0.371867 C.ar      1 <1>        -0.153300 
     10 C          -5.590858   -2.013490   -0.308865 C.ar      1 <1>         0.131000 
     11 C          -6.910362   -2.533724   -0.497251 C.1       1 <1>         0.227000 
     12 N          -7.983540   -2.958111   -0.650205 N.1       1 <1>        -0.485300 
     13 C          -4.511626   -2.879296   -0.056949 C.ar      1 <1>        -0.140500 
     14 C          -3.237575   -2.368485    0.125009 C.ar      1 <1>        -0.205800 
     15 N           0.236400    0.643127    0.503979 N.ar      1 <1>        -0.528400 
     16 C           0.870178    1.801548    0.517104 C.ar      1 <1>         0.461600 
     17 O           2.228537    1.711327    0.674645 O.3       1 <1>        -0.549700 
     18 C           2.853089    2.315632    1.755109 C.ar      1 <1>         0.351500 
     19 C           2.192869    2.475942    2.998369 C.ar      1 <1>        -0.172800 
     20 C           2.872387    3.035491    4.056175 C.ar      1 <1>        -0.204400 
     21 C           4.227314    3.442423    3.933928 C.ar      1 <1>         0.142500 
     22 C           4.948759    4.018046    5.013674 C.ar      1 <1>        -0.191000 
     23 C           6.263296    4.396299    4.860761 C.ar      1 <1>        -0.136300 
     24 C           6.916104    4.214205    3.616220 C.ar      1 <1>        -0.134900 
     25 C           6.245828    3.658790    2.550033 C.ar      1 <1>        -0.190400 
     26 C           4.887475    3.257580    2.674308 C.ar      1 <1>         0.133900 
     27 C           4.166922    2.691014    1.592188 C.ar      1 <1>        -0.253000 
     28 H           1.839152    4.304606   -0.417724 H         1 <1>         0.177300 
     29 H           0.299447    5.141516   -0.148751 H         1 <1>         0.161600 
     30 H           1.317973    4.677060    1.223628 H         1 <1>         0.180800 
     31 H          -1.716963    3.833302   -0.128599 H         1 <1>         0.151200 
     32 H          -1.002557   -1.296578    0.430420 H         1 <1>         0.349700 
     33 H          -3.898183    0.952530   -0.240892 H         1 <1>         0.188800 
     34 H          -6.178032    0.044349   -0.566193 H         1 <1>         0.157700 
     35 H          -4.680351   -3.950048   -0.005450 H         1 <1>         0.157900 
     36 H          -2.410743   -3.047807    0.319125 H         1 <1>         0.137800 
     37 H           1.165235    2.145738    3.110595 H         1 <1>         0.150900 
     38 H           2.370843    3.161010    5.012623 H         1 <1>         0.140400 
     39 H           4.442826    4.154132    5.966634 H         1 <1>         0.132800 
     40 H           6.805702    4.835169    5.693527 H         1 <1>         0.133400 
     41 H           7.954283    4.515587    3.506553 H         1 <1>         0.134300 
     42 H           6.747815    3.518719    1.595774 H         1 <1>         0.133600 
     43 H           4.647311    2.545832    0.629180 H         1 <1>         0.144100 
@<TRIPOS>BOND
     1   22   39 1    
     2   20   38 1    
     3   22   23 ar   
     4   21   22 ar   
     5   23   40 1    
     6   20   21 ar   
     7   19   20 ar   
     8    9   34 1    
     9   19   37 1    
    10    3   31 1    
    11    1   30 1    
    12   24   23 ar   
    13   26   21 ar   
    14    8   33 1    
    15   11   12 3    
    16   18   19 ar   
    17    8    9 ar   
    18    9   10 ar   
    19    1   29 1    
    20    3    4 ar   
    21    2    3 ar   
    22   10   11 1    
    23    7    8 ar   
    24    5    4 ar   
    25    2    1 1    
    26    1   28 1    
    27   13   10 ar   
    28   16    2 ar   
    29    6    7 1    
    30    7   14 ar   
    31    5    6 1    
    32   15    5 ar   
    33   24   41 1    
    34   25   24 ar   
    35   26   25 ar   
    36   27   26 ar   
    37   14   13 ar   
    38   13   35 1    
    39   18   27 ar   
    40   17   18 1    
    41    6   32 1    
    42   16   15 ar   
    43   16   17 1    
    44   14   36 1    
    45   25   42 1    
    46   27   43 1    
@<TRIPOS>SUBSTRUCTURE
     1 ****       30 TEMP              0 ****  ****    0 ROOT 
