#	Name:			FXQ-2009-CMC-219-10Y
#	Creating user name:	Administrator
#	Creation time:		Sun Jul 05 16:13:31 2020

#	Modifying user name:	Administrator
#	Modification time:	Sun Jul 05 16:19:33 2020

@<TRIPOS>MOLECULE
FXQ-2009-CMC-219-10Y
   43    46     1     0     0
SMALL
MULLIKEN_CHARGES
INVALID_CHARGES
Gaussian 16 #p B3LYP/6-31G* opt
@<TRIPOS>ATOM
      1 C           1.021651    4.315621    0.333430 C.3       1 <1>        -0.521300 
      2 C           0.255844    3.023527    0.293668 C.ar      1 <1>         0.087100 
      3 C          -1.111267    2.934304    0.075913 C.ar      1 <1>         0.014800 
      4 N          -1.810617    1.787011    0.053926 N.ar      1 <1>        -0.486400 
      5 C          -1.099490    0.678725    0.263049 C.ar      1 <1>         0.700700 
      6 N          -1.705817   -0.560819    0.270678 N.pl3     1 <1>        -0.770400 
      7 C          -3.030888   -0.957129    0.090503 C.ar      1 <1>         0.383000 
      8 C          -3.295339   -2.339649    0.174477 C.ar      1 <1>        -0.206300 
      9 C          -4.579201   -2.830989    0.007644 C.ar      1 <1>        -0.140600 
     10 C          -5.644911   -1.950368   -0.249800 C.ar      1 <1>         0.130900 
     11 C          -6.974029   -2.450579   -0.423840 C.1       1 <1>         0.226900 
     12 N          -8.055026   -2.859071   -0.565749 N.1       1 <1>        -0.485500 
     13 C          -5.381585   -0.573013   -0.332882 C.ar      1 <1>        -0.153600 
     14 C          -4.095958   -0.073670   -0.166490 C.ar      1 <1>        -0.159900 
     15 N           0.233152    0.617928    0.482030 N.ar      1 <1>        -0.563000 
     16 C           0.870851    1.770148    0.492975 C.ar      1 <1>         0.534600 
     17 O           2.218917    1.785587    0.695696 O.3       1 <1>        -0.560100 
     18 C           2.874310    0.602597    1.008079 C.ar      1 <1>         0.335900 
     19 C           3.469671   -0.128302   -0.042612 C.ar      1 <1>        -0.148700 
     20 C           4.207506   -1.252221    0.234045 C.ar      1 <1>        -0.201600 
     21 C           4.381941   -1.694319    1.572106 C.ar      1 <1>         0.154900 
     22 C           5.143758   -2.855900    1.867260 C.ar      1 <1>        -0.226200 
     23 C           5.301231   -3.264400    3.168493 C.ar      1 <1>         0.084100 
     24 BR          6.325512   -4.828005    3.560502 Br        1 <1>        -0.118400 
     25 C           4.716987   -2.548493    4.237057 C.ar      1 <1>        -0.150300 
     26 C           3.975310   -1.419703    3.976089 C.ar      1 <1>        -0.187400 
     27 C           3.782513   -0.956149    2.647677 C.ar      1 <1>         0.094100 
     28 C           3.025852    0.205654    2.318800 C.ar      1 <1>        -0.007900 
     29 BR          2.201226    1.248056    3.683183 Br        1 <1>        -0.098000 
     30 H           1.792116    4.352762   -0.445882 H         1 <1>         0.171500 
     31 H           1.534679    4.441192    1.293873 H         1 <1>         0.179000 
     32 H           0.349147    5.166943    0.188494 H         1 <1>         0.158100 
     33 H          -1.690903    3.841687   -0.089039 H         1 <1>         0.149500 
     34 H          -1.041246   -1.302498    0.450427 H         1 <1>         0.347900 
     35 H          -2.479232   -3.030546    0.373567 H         1 <1>         0.136400 
     36 H          -4.766077   -3.897847    0.075511 H         1 <1>         0.157400 
     37 H          -6.198523    0.113782   -0.530880 H         1 <1>         0.157600 
     38 H          -3.900619    0.986924   -0.230886 H         1 <1>         0.189800 
     39 H           3.330665    0.225313   -1.058823 H         1 <1>         0.154300 
     40 H           4.668604   -1.817087   -0.571052 H         1 <1>         0.149300 
     41 H           5.597779   -3.413585    1.054721 H         1 <1>         0.159000 
     42 H           4.857078   -2.893783    5.255319 H         1 <1>         0.161700 
     43 H           3.525748   -0.869400    4.794716 H         1 <1>         0.167100 
@<TRIPOS>BOND
     1   20   40 1    
     2   19   39 1    
     3   19   20 ar   
     4   20   21 ar   
     5   18   19 ar   
     6   22   41 1    
     7    1   30 1    
     8   21   22 ar   
     9   22   23 ar   
    10   21   27 ar   
    11   17   18 1    
    12   18   28 ar   
    13   16   17 1    
    14   15   16 ar   
    15   16    2 ar   
    16    2    1 1    
    17    1   32 1    
    18    1   31 1    
    19    5   15 ar   
    20    3    2 ar   
    21    6   34 1    
    22    6    5 1    
    23    5    4 ar   
    24    4    3 ar   
    25    3   33 1    
    26    7    6 1    
    27    8   35 1    
    28    7    8 ar   
    29    7   14 ar   
    30    8    9 ar   
    31   23   24 1    
    32   23   25 ar   
    33   14   38 1    
    34   14   13 ar   
    35    9   36 1    
    36    9   10 ar   
    37   27   28 ar   
    38   27   26 ar   
    39   13   10 ar   
    40   13   37 1    
    41   28   29 1    
    42   10   11 1    
    43   11   12 3    
    44   25   26 ar   
    45   25   42 1    
    46   26   43 1    
@<TRIPOS>SUBSTRUCTURE
     1 ****       30 TEMP              0 ****  ****    0 ROOT 
