#	Name:			FXQ-2009-CMC-219-10T
#	Creating user name:	Administrator
#	Creation time:		Sun Jul 05 16:13:31 2020

#	Modifying user name:	Administrator
#	Modification time:	Sun Jul 05 16:19:33 2020

@<TRIPOS>MOLECULE
FXQ-2009-CMC-219-10T
   40    43     1     0     0
SMALL
MULLIKEN_CHARGES
INVALID_CHARGES
Gaussian 16 #p B3LYP/6-31G* opt
@<TRIPOS>ATOM
      1 N          -7.981131   -2.974453   -0.520674 N.1       1 <1>        -0.485500 
      2 C          -6.907056   -2.545853   -0.385777 C.1       1 <1>         0.227100 
      3 C          -5.586568   -2.020304   -0.220310 C.ar      1 <1>         0.131100 
      4 C          -5.351388   -0.637757   -0.299363 C.ar      1 <1>        -0.153500 
      5 C          -4.074454   -0.113883   -0.141181 C.ar      1 <1>        -0.159300 
      6 C          -2.990061   -0.976987    0.103133 C.ar      1 <1>         0.382600 
      7 N          -1.670840   -0.556860    0.276005 N.pl3     1 <1>        -0.766600 
      8 C          -1.082133    0.689645    0.265434 C.ar      1 <1>         0.700200 
      9 N          -1.822688    1.786491    0.056778 N.ar      1 <1>        -0.484000 
     10 C          -1.142809    2.940312    0.072305 C.ar      1 <1>         0.068300 
     11 C           0.225025    3.032937    0.282513 C.ar      1 <1>        -0.215700 
     12 C           0.879235    1.806689    0.485509 C.ar      1 <1>         0.545200 
     13 O           2.217910    1.691207    0.711797 O.3       1 <1>        -0.523300 
     14 C           3.027012    2.813672    0.654190 C.ar      1 <1>         0.314600 
     15 C           3.534125    3.215879   -0.603012 C.ar      1 <1>        -0.147600 
     16 C           4.407699    4.271634   -0.685023 C.ar      1 <1>        -0.202800 
     17 C           4.818435    4.970032    0.481294 C.ar      1 <1>         0.153200 
     18 C           5.723450    6.062333    0.410954 C.ar      1 <1>        -0.194900 
     19 C           6.117975    6.730312    1.546933 C.ar      1 <1>        -0.129500 
     20 C           5.620869    6.330728    2.809522 C.ar      1 <1>        -0.132300 
     21 C           4.742125    5.275943    2.918037 C.ar      1 <1>        -0.193500 
     22 C           4.315408    4.566174    1.764440 C.ar      1 <1>         0.124800 
     23 C           3.405354    3.466880    1.810420 C.ar      1 <1>        -0.193100 
     24 CL          2.753933    2.922248    3.341389 Cl        1 <1>         0.023600 
     25 N           0.247874    0.645991    0.477595 N.ar      1 <1>        -0.543200 
     26 C          -3.226379   -2.364810    0.182799 C.ar      1 <1>        -0.205600 
     27 C          -4.501632   -2.880883    0.024293 C.ar      1 <1>        -0.140600 
     28 H          -6.183310    0.033614   -0.487454 H         1 <1>         0.157500 
     29 H          -3.900886    0.950676   -0.202818 H         1 <1>         0.189400 
     30 H          -0.990979   -1.286813    0.448475 H         1 <1>         0.350200 
     31 H          -1.733166    3.839802   -0.092279 H         1 <1>         0.157400 
     32 H           0.741890    3.982768    0.295627 H         1 <1>         0.163300 
     33 H           3.223237    2.662291   -1.483065 H         1 <1>         0.156300 
     34 H           4.801195    4.581384   -1.649167 H         1 <1>         0.147200 
     35 H           6.100087    6.360209   -0.564363 H         1 <1>         0.139600 
     36 H           6.810880    7.564019    1.478145 H         1 <1>         0.140600 
     37 H           5.935916    6.861336    3.703586 H         1 <1>         0.142100 
     38 H           4.366653    4.976417    3.889669 H         1 <1>         0.161400 
     39 H          -2.395088   -3.040111    0.371718 H         1 <1>         0.138000 
     40 H          -4.666611   -3.951453    0.088493 H         1 <1>         0.157700 
@<TRIPOS>BOND
     1   26   39 1    
     2   27   40 1    
     3    7   30 1    
     4   15   33 1    
     5   26   27 ar   
     6    6   26 ar   
     7   13   14 1    
     8   12   13 1    
     9   15   16 ar   
    10   14   15 ar   
    11   16   34 1    
    12   27    3 ar   
    13   25   12 ar   
    14    8   25 ar   
    15   16   17 ar   
    16   14   23 ar   
    17    7    6 1    
    18    7    8 1    
    19    6    5 ar   
    20   12   11 ar   
    21   17   18 ar   
    22   17   22 ar   
    23   18   35 1    
    24   23   22 ar   
    25   23   24 1    
    26    8    9 ar   
    27   18   19 ar   
    28   22   21 ar   
    29    3    2 1    
    30    3    4 ar   
    31    2    1 3    
    32   19   36 1    
    33   19   20 ar   
    34   21   20 ar   
    35   21   38 1    
    36    5    4 ar   
    37    5   29 1    
    38   11   32 1    
    39   11   10 ar   
    40   20   37 1    
    41    9   10 ar   
    42    4   28 1    
    43   10   31 1    
@<TRIPOS>SUBSTRUCTURE
     1 ****       30 TEMP              0 ****  ****    0 ROOT 
