#	Name:			FXQ-2009-CMC-219-10G
#	Creating user name:	Administrator
#	Creation time:		Sun Jul 05 16:13:29 2020

#	Modifying user name:	Administrator
#	Modification time:	Sun Jul 05 16:19:33 2020

@<TRIPOS>MOLECULE
FXQ-2009-CMC-219-10G
   40    43     1     0     0
SMALL
MULLIKEN_CHARGES
INVALID_CHARGES
Gaussian 16 #p B3LYP/6-31G* opt
@<TRIPOS>ATOM
      1 N          -0.296562   -7.114531    1.037419 N.1       1 <1>        -0.484700 
      2 C          -0.530004   -5.981491    0.906385 C.1       1 <1>         0.227600 
      3 C          -0.819158   -4.589455    0.744916 C.ar      1 <1>         0.131500 
      4 C          -2.133582   -4.158851    0.491363 C.ar      1 <1>        -0.140500 
      5 C          -2.405631   -2.810094    0.335708 C.ar      1 <1>        -0.205100 
      6 C          -1.379369   -1.847429    0.427287 C.ar      1 <1>         0.381400 
      7 N          -1.756640   -0.514639    0.256052 N.pl3     1 <1>        -0.764600 
      8 C          -1.044587    0.664314    0.273505 C.ar      1 <1>         0.695300 
      9 N          -1.809114    1.756120    0.061217 N.ar      1 <1>        -0.492700 
     10 C          -1.152919    2.915910    0.070055 C.ar      1 <1>         0.066200 
     11 C           0.219138    3.032013    0.283422 C.ar      1 <1>        -0.218400 
     12 C           0.889840    1.822132    0.491450 C.ar      1 <1>         0.539100 
     13 O           2.230253    1.716759    0.705248 O.3       1 <1>        -0.535400 
     14 C           3.013741    2.864062    0.802880 C.ar      1 <1>         0.248500 
     15 C           3.078066    3.548789    1.991693 C.ar      1 <1>        -0.153700 
     16 C           3.926643    4.671627    2.109299 C.ar      1 <1>        -0.156600 
     17 C           4.690262    5.072509    1.037606 C.ar      1 <1>        -0.130100 
     18 CL          5.727615    6.480244    1.236301 Cl        1 <1>        -0.005000 
     19 C           4.663256    4.380351   -0.209317 C.ar      1 <1>         0.125400 
     20 C           5.440463    4.754263   -1.337303 C.ar      1 <1>        -0.197100 
     21 C           5.370084    4.038103   -2.510867 C.ar      1 <1>        -0.128000 
     22 C           4.523259    2.910217   -2.616830 C.ar      1 <1>        -0.130200 
     23 C           3.753718    2.517989   -1.545827 C.ar      1 <1>        -0.189900 
     24 C           3.797696    3.238654   -0.323372 C.ar      1 <1>         0.117200 
     25 N           0.275603    0.643802    0.486987 N.ar      1 <1>        -0.534400 
     26 C          -0.062956   -2.275728    0.681349 C.ar      1 <1>        -0.162900 
     27 C           0.203152   -3.630634    0.836448 C.ar      1 <1>        -0.153900 
     28 H          -2.934695   -4.887181    0.417816 H         1 <1>         0.158100 
     29 H          -3.425946   -2.488697    0.139830 H         1 <1>         0.137600 
     30 H          -2.740029   -0.347880    0.082891 H         1 <1>         0.348900 
     31 H          -1.755052    3.806015   -0.104051 H         1 <1>         0.158800 
     32 H           0.721573    3.989416    0.283199 H         1 <1>         0.163700 
     33 H           2.481580    3.221299    2.836823 H         1 <1>         0.157300 
     34 H           3.978204    5.215725    3.045752 H         1 <1>         0.164200 
     35 H           6.095154    5.614648   -1.260206 H         1 <1>         0.162900 
     36 H           5.973647    4.339346   -3.362335 H         1 <1>         0.142900 
     37 H           4.483902    2.350428   -3.546851 H         1 <1>         0.143300 
     38 H           3.111772    1.646552   -1.613804 H         1 <1>         0.159600 
     39 H           0.730814   -1.546660    0.753788 H         1 <1>         0.194700 
     40 H           1.220545   -3.954270    1.032406 H         1 <1>         0.159200 
@<TRIPOS>BOND
     1   16   34 1    
     2   15   33 1    
     3   15   16 ar   
     4   16   17 ar   
     5   14   15 ar   
     6   17   18 1    
     7   27   40 1    
     8   19   17 ar   
     9    2    1 3    
    10    3    2 1    
    11   13   14 1    
    12   14   24 ar   
    13   27    3 ar   
    14   26   27 ar   
    15   26   39 1    
    16   12   13 1    
    17    4    3 ar   
    18    6   26 ar   
    19   25   12 ar   
    20   12   11 ar   
    21    8   25 ar   
    22    4   28 1    
    23    5    4 ar   
    24   24   19 ar   
    25   19   20 ar   
    26    6    5 ar   
    27    7    6 1    
    28   24   23 ar   
    29   11   32 1    
    30   11   10 ar   
    31    5   29 1    
    32    8    7 1    
    33    8    9 ar   
    34    7   30 1    
    35   10    9 ar   
    36   10   31 1    
    37   20   35 1    
    38   20   21 ar   
    39   23   38 1    
    40   23   22 ar   
    41   21   22 ar   
    42   21   36 1    
    43   22   37 1    
@<TRIPOS>SUBSTRUCTURE
     1 ****       34 TEMP              0 ****  ****    0 ROOT 
