#	Name:			FXQ-2009-CMC-219-10S
#	Creating user name:	Administrator
#	Creation time:		Sun Jul 05 16:13:31 2020

#	Modifying user name:	Administrator
#	Modification time:	Sun Jul 05 16:19:33 2020

@<TRIPOS>MOLECULE
FXQ-2009-CMC-219-10S
   43    46     1     0     0
SMALL
MULLIKEN_CHARGES
INVALID_CHARGES
Gaussian 16 #p B3LYP/6-31G* opt
@<TRIPOS>ATOM
      1 C           1.021484    4.316240    0.314961 C.3       1 <1>        -0.521100 
      2 C           0.256326    3.023210    0.290049 C.ar      1 <1>         0.086800 
      3 C          -1.111288    2.934247    0.076865 C.ar      1 <1>         0.014400 
      4 N          -1.811828    1.787312    0.057284 N.ar      1 <1>        -0.487000 
      5 C          -1.099785    0.679192    0.263062 C.ar      1 <1>         0.699500 
      6 N          -1.705634   -0.561175    0.270783 N.pl3     1 <1>        -0.770300 
      7 C          -3.030299   -0.958177    0.093527 C.ar      1 <1>         0.383200 
      8 C          -4.096943   -0.075178   -0.158966 C.ar      1 <1>        -0.160000 
      9 C          -5.382551   -0.575208   -0.322971 C.ar      1 <1>        -0.153600 
     10 C          -5.644742   -1.952814   -0.241704 C.ar      1 <1>         0.130600 
     11 C          -6.973812   -2.453965   -0.413452 C.1       1 <1>         0.226500 
     12 N          -8.054651   -2.863502   -0.553400 N.1       1 <1>        -0.486200 
     13 C          -4.577576   -2.833092    0.011391 C.ar      1 <1>        -0.140700 
     14 C          -3.293785   -2.341230    0.175715 C.ar      1 <1>        -0.206200 
     15 N           0.233086    0.617858    0.479055 N.ar      1 <1>        -0.563400 
     16 C           0.873064    1.769486    0.489750 C.ar      1 <1>         0.533700 
     17 O           2.217633    1.786279    0.701087 O.3       1 <1>        -0.557400 
     18 C           2.893803    0.590246    0.906638 C.ar      1 <1>         0.361700 
     19 C           3.317001   -0.153409   -0.216918 C.ar      1 <1>        -0.140300 
     20 C           4.070323   -1.287111   -0.043895 C.ar      1 <1>        -0.207200 
     21 C           4.436801   -1.727758    1.255586 C.ar      1 <1>         0.154100 
     22 C           5.217800   -2.897947    1.449377 C.ar      1 <1>        -0.196100 
     23 C           5.569383   -3.315370    2.712158 C.ar      1 <1>        -0.130300 
     24 C           5.152074   -2.573743    3.842081 C.ar      1 <1>        -0.133100 
     25 C           4.394544   -1.433098    3.694240 C.ar      1 <1>        -0.194200 
     26 C           4.014771   -0.976578    2.404235 C.ar      1 <1>         0.122900 
     27 C           3.230384    0.195550    2.183970 C.ar      1 <1>        -0.190800 
     28 CL          2.681469    1.158573    3.540954 Cl        1 <1>         0.011800 
     29 H           1.526567    4.462593    1.276690 H         1 <1>         0.179700 
     30 H           0.349682    5.163957    0.147962 H         1 <1>         0.157400 
     31 H           1.798660    4.338880   -0.458187 H         1 <1>         0.171200 
     32 H          -1.690565    3.841776   -0.088892 H         1 <1>         0.148700 
     33 H          -1.039590   -1.302074    0.448699 H         1 <1>         0.348200 
     34 H          -3.902253    0.985691   -0.221925 H         1 <1>         0.189800 
     35 H          -6.200563    0.111499   -0.517424 H         1 <1>         0.157300 
     36 H          -4.763488   -3.900208    0.077691 H         1 <1>         0.156700 
     37 H          -2.476520   -3.031710    0.371426 H         1 <1>         0.136100 
     38 H           3.035462    0.198852   -1.203674 H         1 <1>         0.149000 
     39 H           4.399072   -1.861584   -0.905589 H         1 <1>         0.143600 
     40 H           5.533680   -3.459762    0.573783 H         1 <1>         0.137400 
     41 H           6.167020   -4.212721    2.845011 H         1 <1>         0.138400 
     42 H           5.432214   -2.907236    4.837372 H         1 <1>         0.139800 
     43 H           4.079206   -0.871143    4.565780 H         1 <1>         0.159400 
@<TRIPOS>BOND
     1   20   39 1    
     2   19   38 1    
     3   22   40 1    
     4   19   20 ar   
     5   20   21 ar   
     6   18   19 ar   
     7   21   22 ar   
     8   22   23 ar   
     9    1   31 1    
    10   21   26 ar   
    11   17   18 1    
    12   18   27 ar   
    13   16   17 1    
    14   15   16 ar   
    15   16    2 ar   
    16    5   15 ar   
    17    6   33 1    
    18   23   41 1    
    19   14   37 1    
    20    2    1 1    
    21    1   30 1    
    22    1   29 1    
    23    2    3 ar   
    24    6    5 1    
    25    5    4 ar   
    26    7    6 1    
    27   14    7 ar   
    28   14   13 ar   
    29   23   24 ar   
    30    3    4 ar   
    31    3   32 1    
    32    7    8 ar   
    33   13   36 1    
    34   13   10 ar   
    35    8   34 1    
    36    8    9 ar   
    37   10    9 ar   
    38   10   11 1    
    39    9   35 1    
    40   11   12 3    
    41   26   27 ar   
    42   26   25 ar   
    43   27   28 1    
    44   24   25 ar   
    45   24   42 1    
    46   25   43 1    
@<TRIPOS>SUBSTRUCTURE
     1 ****       37 TEMP              0 ****  ****    0 ROOT 
