#	Name:			FXQ-2009-CMC-219-10M
#	Creating user name:	Administrator
#	Creation time:		Sun Jul 05 16:13:29 2020

#	Modifying user name:	Administrator
#	Modification time:	Sun Jul 05 16:19:33 2020

@<TRIPOS>MOLECULE
FXQ-2009-CMC-219-10M
   40    43     1     0     0
SMALL
MULLIKEN_CHARGES
INVALID_CHARGES
Gaussian 16 #p B3LYP/6-31G* opt
@<TRIPOS>ATOM
      1 N          -7.974821   -2.978009   -0.563686 N.1       1 <1>        -0.485900 
      2 C          -6.901714   -2.548905   -0.422995 C.1       1 <1>         0.226800 
      3 C          -5.582462   -2.022861   -0.249920 C.ar      1 <1>         0.130800 
      4 C          -5.347944   -0.639795   -0.323278 C.ar      1 <1>        -0.153500 
      5 C          -4.072336   -0.115153   -0.157111 C.ar      1 <1>        -0.159500 
      6 C          -2.988256   -0.978039    0.089556 C.ar      1 <1>         0.382700 
      7 N          -1.670605   -0.557386    0.270777 N.pl3     1 <1>        -0.766000 
      8 C          -1.082075    0.690105    0.265455 C.ar      1 <1>         0.698000 
      9 N          -1.823534    1.786397    0.057396 N.ar      1 <1>        -0.484800 
     10 C          -1.142316    2.939945    0.070205 C.ar      1 <1>         0.067600 
     11 C           0.224838    3.032748    0.282451 C.ar      1 <1>        -0.221600 
     12 C           0.881335    1.807138    0.492587 C.ar      1 <1>         0.535700 
     13 O           2.217812    1.691389    0.703655 O.3       1 <1>        -0.531100 
     14 C           2.996908    2.837294    0.861745 C.ar      1 <1>         0.316300 
     15 C           2.997397    3.501118    2.111632 C.ar      1 <1>        -0.152900 
     16 C           3.824002    4.584640    2.297735 C.ar      1 <1>        -0.203800 
     17 C           4.679981    5.043745    1.259705 C.ar      1 <1>         0.145600 
     18 C           5.543925    6.158680    1.427710 C.ar      1 <1>        -0.192400 
     19 C           6.363770    6.575545    0.403390 C.ar      1 <1>        -0.133400 
     20 C           6.357557    5.893749   -0.838299 C.ar      1 <1>        -0.134800 
     21 C           5.532944    4.808785   -1.033842 C.ar      1 <1>        -0.188300 
     22 C           4.674091    4.354112    0.002529 C.ar      1 <1>         0.127600 
     23 C           3.808973    3.240259   -0.169522 C.ar      1 <1>        -0.232500 
     24 N           0.246120    0.646074    0.485411 N.ar      1 <1>        -0.543500 
     25 C          -3.223824   -2.366391    0.163238 C.ar      1 <1>        -0.205800 
     26 C          -4.497783   -2.883053   -0.003260 C.ar      1 <1>        -0.140600 
     27 H          -6.179576    0.031476   -0.513298 H         1 <1>         0.157200 
     28 H          -3.899214    0.949669   -0.214762 H         1 <1>         0.189300 
     29 H          -0.990161   -1.287514    0.439737 H         1 <1>         0.349200 
     30 H          -1.731376    3.838908   -0.102194 H         1 <1>         0.156200 
     31 H           0.744279    3.981097    0.278927 H         1 <1>         0.164200 
     32 H           2.353195    3.136549    2.905554 H         1 <1>         0.150100 
     33 H           3.835479    5.101052    3.254279 H         1 <1>         0.142800 
     34 H           5.546805    6.678685    2.382666 H         1 <1>         0.135700 
     35 H           7.020212    7.429724    0.544010 H         1 <1>         0.136700 
     36 H           7.009639    6.231578   -1.639009 H         1 <1>         0.137400 
     37 H           5.528137    4.284384   -1.986198 H         1 <1>         0.137200 
     38 H           3.793277    2.698789   -1.110734 H         1 <1>         0.148500 
     39 H          -2.392772   -3.041666    0.353537 H         1 <1>         0.137500 
     40 H          -4.661983   -3.954136    0.056336 H         1 <1>         0.157300 
@<TRIPOS>BOND
     1   21   37 1    
     2   20   36 1    
     3   21   20 ar   
     4   22   21 ar   
     5   23   38 1    
     6   20   19 ar   
     7   23   22 ar   
     8   14   23 ar   
     9   22   17 ar   
    10    4   27 1    
    11   10   30 1    
    12   19   35 1    
    13   19   18 ar   
    14    2    1 3    
    15    5   28 1    
    16    5    4 ar   
    17    4    3 ar   
    18    3    2 1    
    19   10    9 ar   
    20   11   10 ar   
    21    6    5 ar   
    22   26    3 ar   
    23    8    9 ar   
    24   11   31 1    
    25   12   11 ar   
    26    7    6 1    
    27    6   25 ar   
    28   25   26 ar   
    29   26   40 1    
    30    8    7 1    
    31   24    8 ar   
    32    7   29 1    
    33   25   39 1    
    34   12   24 ar   
    35   13   12 1    
    36   13   14 1    
    37   14   15 ar   
    38   17   18 ar   
    39   17   16 ar   
    40   18   34 1    
    41   15   16 ar   
    42   15   32 1    
    43   16   33 1    
@<TRIPOS>SUBSTRUCTURE
     1 ****       30 TEMP              0 ****  ****    0 ROOT 
