#	Name:			FXQ-2009-CMC-219-10AE
#	Creating user name:	Administrator
#	Creation time:		Sun Jul 05 16:13:29 2020

#	Modifying user name:	Administrator
#	Modification time:	Sun Jul 05 16:19:33 2020

@<TRIPOS>MOLECULE
FXQ-2009-CMC-219-10AE
   37    39     1     0     0
SMALL
MULLIKEN_CHARGES
INVALID_CHARGES
Gaussian 16 #p B3LYP/6-31G* opt
@<TRIPOS>ATOM
      1 C           1.021980    4.314517    0.303819 C.3       1 <1>        -0.519400 
      2 C           0.256164    3.021731    0.287435 C.ar      1 <1>         0.085500 
      3 C          -1.111296    2.934305    0.077706 C.ar      1 <1>         0.013600 
      4 N          -1.813345    1.787670    0.059489 N.ar      1 <1>        -0.488000 
      5 C          -1.099885    0.680208    0.263160 C.ar      1 <1>         0.695800 
      6 N          -1.705796   -0.560922    0.269542 N.pl3     1 <1>        -0.769400 
      7 C          -3.030258   -0.958164    0.093497 C.ar      1 <1>         0.383200 
      8 C          -3.292772   -2.341786    0.169129 C.ar      1 <1>        -0.206400 
      9 C          -4.576912   -2.833567    0.006799 C.ar      1 <1>        -0.140800 
     10 C          -5.645572   -1.952649   -0.237774 C.ar      1 <1>         0.130400 
     11 C          -6.974952   -2.453531   -0.406665 C.1       1 <1>         0.226300 
     12 N          -8.056279   -2.862778   -0.544080 N.1       1 <1>        -0.486500 
     13 C          -5.384351   -0.574413   -0.313046 C.ar      1 <1>        -0.153800 
     14 C          -4.098395   -0.074525   -0.151175 C.ar      1 <1>        -0.160300 
     15 N           0.232326    0.617007    0.479334 N.ar      1 <1>        -0.561600 
     16 C           0.877029    1.767648    0.487487 C.ar      1 <1>         0.524400 
     17 O           2.216378    1.788762    0.703785 O.3       1 <1>        -0.562800 
     18 C           2.915895    0.587393    0.872267 C.ar      1 <1>         0.355400 
     19 C           3.298169   -0.154490   -0.242461 C.ar      1 <1>        -0.140800 
     20 C           4.076631   -1.297407   -0.058448 C.ar      1 <1>        -0.144500 
     21 C           4.467934   -1.685493    1.225328 C.ar      1 <1>        -0.121400 
     22 C           4.079508   -0.925879    2.330261 C.ar      1 <1>        -0.143200 
     23 C           3.298367    0.218407    2.158016 C.ar      1 <1>        -0.150700 
     24 H           0.351784    5.161429    0.125682 H         1 <1>         0.157100 
     25 H           1.802935    4.328635   -0.465539 H         1 <1>         0.172300 
     26 H           1.523735    4.472151    1.265866 H         1 <1>         0.172100 
     27 H          -1.690038    3.842242   -0.088343 H         1 <1>         0.147200 
     28 H          -1.037659   -1.301926    0.438813 H         1 <1>         0.348000 
     29 H          -2.474399   -3.032833    0.357989 H         1 <1>         0.135700 
     30 H          -4.761995   -3.901204    0.068105 H         1 <1>         0.156400 
     31 H          -6.203280    0.112697   -0.501429 H         1 <1>         0.156900 
     32 H          -3.904027    0.986638   -0.210043 H         1 <1>         0.189700 
     33 H           2.990395    0.165132   -1.232816 H         1 <1>         0.142500 
     34 H           4.380659   -1.882795   -0.921824 H         1 <1>         0.139200 
     35 H           5.077044   -2.574318    1.362800 H         1 <1>         0.135500 
     36 H           4.384818   -1.220612    3.330370 H         1 <1>         0.139500 
     37 H           2.989582    0.826228    3.002479 H         1 <1>         0.142900 
@<TRIPOS>BOND
     1   23   37 1    
     2   22   36 1    
     3   23   22 ar   
     4   18   23 ar   
     5   22   21 ar   
     6    1   26 1    
     7    8   29 1    
     8    9   30 1    
     9    8    9 ar   
    10    7    8 ar   
    11    9   10 ar   
    12    6   28 1    
    13    6    7 1    
    14    5    6 1    
    15    7   14 ar   
    16   10   11 1    
    17   13   10 ar   
    18   11   12 3    
    19   16   17 1    
    20   17   18 1    
    21   15    5 ar   
    22   16   15 ar   
    23    4    5 ar   
    24    2   16 ar   
    25   18   19 ar   
    26   14   13 ar   
    27   13   31 1    
    28   14   32 1    
    29    3    4 ar   
    30    2    3 ar   
    31    2    1 1    
    32   21   35 1    
    33   21   20 ar   
    34    3   27 1    
    35    1   24 1    
    36    1   25 1    
    37   19   20 ar   
    38   19   33 1    
    39   20   34 1    
@<TRIPOS>SUBSTRUCTURE
     1 ****       28 TEMP              0 ****  ****    0 ROOT 
