#	Name:			FXQ-2009-CMC-219-10U
#	Creating user name:	Administrator
#	Creation time:		Sun Jul 05 16:13:31 2020

#	Modifying user name:	Administrator
#	Modification time:	Sun Jul 05 16:19:33 2020

@<TRIPOS>MOLECULE
FXQ-2009-CMC-219-10U
   43    46     1     0     0
SMALL
MULLIKEN_CHARGES
INVALID_CHARGES
Gaussian 16 #p B3LYP/6-31G* opt
@<TRIPOS>ATOM
      1 C          -1.979117    4.191535   -0.162433 C.3       1 <1>        -0.514000 
      2 C          -1.151206    2.956447    0.070118 C.ar      1 <1>         0.340800 
      3 C           0.222655    3.026866    0.279307 C.ar      1 <1>        -0.250100 
      4 C           0.876661    1.802790    0.482157 C.ar      1 <1>         0.554000 
      5 O           2.216727    1.691022    0.714350 O.3       1 <1>        -0.531600 
      6 C           3.015465    2.821503    0.745656 C.ar      1 <1>         0.290100 
      7 C           3.367590    3.336760    2.014168 C.ar      1 <1>        -0.153600 
      8 C           4.228904    4.401600    2.108097 C.ar      1 <1>        -0.201500 
      9 C           4.777221    5.000912    0.943622 C.ar      1 <1>         0.152900 
     10 C           5.668604    6.103544    1.027508 C.ar      1 <1>        -0.196100 
     11 C           6.196768    6.676445   -0.106020 C.ar      1 <1>        -0.129400 
     12 C           5.852786    6.166350   -1.379854 C.ar      1 <1>        -0.132600 
     13 C           4.992207    5.098555   -1.501093 C.ar      1 <1>        -0.186800 
     14 C           4.429666    4.483810   -0.350956 C.ar      1 <1>         0.090100 
     15 C           3.534622    3.374207   -0.407488 C.ar      1 <1>        -0.014200 
     16 BR          3.025515    2.620983   -2.081653 Br        1 <1>        -0.092700 
     17 N           0.250888    0.640163    0.480748 N.ar      1 <1>        -0.548700 
     18 C          -1.078855    0.690733    0.265979 C.ar      1 <1>         0.699700 
     19 N          -1.669099   -0.557211    0.273720 N.pl3     1 <1>        -0.771800 
     20 C          -2.986703   -0.976756    0.096966 C.ar      1 <1>         0.383200 
     21 C          -3.223862   -2.365316    0.168175 C.ar      1 <1>        -0.205800 
     22 C          -4.498979   -2.880274    0.006374 C.ar      1 <1>        -0.140800 
     23 C          -5.584229   -2.018437   -0.233123 C.ar      1 <1>         0.130600 
     24 C          -6.904755   -2.542555   -0.401012 C.1       1 <1>         0.226300 
     25 N          -7.979220   -2.969872   -0.537386 N.1       1 <1>        -0.486600 
     26 C          -5.348416   -0.635477   -0.304384 C.ar      1 <1>        -0.153900 
     27 C          -4.071693   -0.112594   -0.142925 C.ar      1 <1>        -0.159700 
     28 N          -1.816197    1.785600    0.061556 N.ar      1 <1>        -0.540900 
     29 H          -1.371802    5.099988   -0.132888 H         1 <1>         0.159200 
     30 H          -2.477512    4.131345   -1.136469 H         1 <1>         0.181100 
     31 H          -2.765825    4.265725    0.596759 H         1 <1>         0.179200 
     32 H           0.750963    3.970593    0.280323 H         1 <1>         0.156100 
     33 H           2.947601    2.860956    2.894297 H         1 <1>         0.156800 
     34 H           4.503413    4.798190    3.081669 H         1 <1>         0.146400 
     35 H           5.926102    6.486546    2.011887 H         1 <1>         0.139100 
     36 H           6.877491    7.519264   -0.026602 H         1 <1>         0.139900 
     37 H           6.272085    6.621834   -2.272504 H         1 <1>         0.141300 
     38 H           4.731955    4.712213   -2.479837 H         1 <1>         0.159500 
     39 H          -0.987635   -1.287704    0.436472 H         1 <1>         0.349100 
     40 H          -2.392482   -3.041754    0.352692 H         1 <1>         0.137300 
     41 H          -4.664014   -3.951266    0.064014 H         1 <1>         0.156900 
     42 H          -6.180392    0.036946   -0.489229 H         1 <1>         0.155900 
     43 H          -3.896347    0.951849   -0.199211 H         1 <1>         0.185600 
@<TRIPOS>BOND
     1   21   40 1    
     2    7   33 1    
     3   19   39 1    
     4   22   41 1    
     5    8   34 1    
     6    8    7 ar   
     7    7    6 ar   
     8    6    5 1    
     9    5    4 1    
    10   21   22 ar   
    11   20   21 ar   
    12    9    8 ar   
    13    4   17 ar   
    14   17   18 ar   
    15   22   23 ar   
    16    6   15 ar   
    17   19   20 1    
    18   18   19 1    
    19    4    3 ar   
    20   10   35 1    
    21   20   27 ar   
    22    9   10 ar   
    23    9   14 ar   
    24   18   28 ar   
    25   15   14 ar   
    26   15   16 1    
    27   10   11 ar   
    28   14   13 ar   
    29   23   24 1    
    30   23   26 ar   
    31   24   25 3    
    32   11   36 1    
    33   11   12 ar   
    34    3   32 1    
    35    3    2 ar   
    36   27   26 ar   
    37   27   43 1    
    38   28    2 ar   
    39   13   12 ar   
    40   13   38 1    
    41   26   42 1    
    42   12   37 1    
    43    2    1 1    
    44    1   31 1    
    45    1   29 1    
    46    1   30 1    
@<TRIPOS>SUBSTRUCTURE
     1 ****       39 TEMP              0 ****  ****    0 ROOT 
