#	Name:			FXQ-2009-CMC-219-10AC
#	Creating user name:	Administrator
#	Creation time:		Sun Jul 05 16:13:29 2020

#	Modifying user name:	Administrator
#	Modification time:	Sun Jul 05 16:19:33 2020

@<TRIPOS>MOLECULE
FXQ-2009-CMC-219-10AC
   40    43     1     0     0
SMALL
MULLIKEN_CHARGES
INVALID_CHARGES
Gaussian 16 #p B3LYP/6-31G* opt
@<TRIPOS>ATOM
      1 N          -8.058121   -2.859047   -0.522197 N.1       1 <1>        -0.484200 
      2 C          -6.976682   -2.449388   -0.388198 C.1       1 <1>         0.227700 
      3 C          -5.646840   -1.947550   -0.223498 C.ar      1 <1>         0.131600 
      4 C          -4.578439   -2.827187    0.025564 C.ar      1 <1>        -0.140500 
      5 C          -3.293973   -2.334072    0.183521 C.ar      1 <1>        -0.205900 
      6 C          -3.032581   -0.951383    0.098695 C.ar      1 <1>         0.381800 
      7 N          -1.705054   -0.554494    0.270360 N.pl3     1 <1>        -0.767300 
      8 C          -1.097789    0.682458    0.262890 C.ar      1 <1>         0.699500 
      9 N          -1.815646    1.791057    0.060155 N.ar      1 <1>        -0.488100 
     10 C          -1.116587    2.938795    0.077501 C.ar      1 <1>         0.070000 
     11 C           0.248887    3.005317    0.285995 C.ar      1 <1>        -0.216000 
     12 C           0.882494    1.766524    0.485725 C.ar      1 <1>         0.571100 
     13 O           2.219118    1.791627    0.707850 O.3       1 <1>        -0.562000 
     14 C           2.937956    0.598899    0.819081 C.ar      1 <1>         0.357400 
     15 C           3.101789   -0.237403   -0.310184 C.ar      1 <1>        -0.138300 
     16 C           3.896985   -1.353975   -0.212253 C.ar      1 <1>        -0.206000 
     17 C           4.560565   -1.678061    1.003230 C.ar      1 <1>         0.145500 
     18 C           5.387024   -2.826333    1.123629 C.ar      1 <1>        -0.220800 
     19 C           6.011275   -3.097498    2.317306 C.ar      1 <1>         0.079000 
     20 BR          7.123208   -4.644725    2.479280 Br        1 <1>        -0.125600 
     21 C           5.854718   -2.256662    3.443364 C.ar      1 <1>        -0.152100 
     22 C           5.058832   -1.138486    3.345410 C.ar      1 <1>        -0.190100 
     23 C           4.391028   -0.815461    2.134143 C.ar      1 <1>         0.135300 
     24 C           3.562233    0.330680    2.010867 C.ar      1 <1>        -0.237600 
     25 N           0.236151    0.615127    0.477460 N.ar      1 <1>        -0.561100 
     26 C          -4.099878   -0.069012   -0.150271 C.ar      1 <1>        -0.159100 
     27 C          -5.386280   -0.569981   -0.307768 C.ar      1 <1>        -0.153400 
     28 H          -4.763359   -3.894252    0.093892 H         1 <1>         0.158500 
     29 H          -2.475503   -3.024006    0.376196 H         1 <1>         0.137700 
     30 H          -1.039283   -1.296935    0.443200 H         1 <1>         0.349200 
     31 H          -1.695100    3.845607   -0.087235 H         1 <1>         0.158000 
     32 H           0.803880    3.934509    0.297657 H         1 <1>         0.159100 
     33 H           2.600524    0.015484   -1.238068 H         1 <1>         0.148400 
     34 H           4.031516   -2.003204   -1.073299 H         1 <1>         0.144200 
     35 H           5.520568   -3.483217    0.270189 H         1 <1>         0.155500 
     36 H           6.362385   -2.500857    4.369932 H         1 <1>         0.157700 
     37 H           4.933728   -0.486957    4.206411 H         1 <1>         0.144800 
     38 H           3.423846    1.000131    2.854332 H         1 <1>         0.147000 
     39 H          -3.906333    0.991810   -0.215514 H         1 <1>         0.190400 
     40 H          -6.205448    0.115863   -0.499473 H         1 <1>         0.158600 
@<TRIPOS>BOND
     1   22   37 1    
     2   21   36 1    
     3   24   38 1    
     4   22   21 ar   
     5   23   22 ar   
     6   21   19 ar   
     7   24   23 ar   
     8   14   24 ar   
     9   23   17 ar   
    10   27   40 1    
    11   19   20 1    
    12   19   18 ar   
    13    2    1 3    
    14   10   31 1    
    15    3    2 1    
    16   27    3 ar   
    17   26   27 ar   
    18   26   39 1    
    19    4    3 ar   
    20    6   26 ar   
    21   10    9 ar   
    22   11   10 ar   
    23    8    9 ar   
    24   11   32 1    
    25   12   11 ar   
    26    4   28 1    
    27    5    4 ar   
    28    6    5 ar   
    29    7    6 1    
    30    8    7 1    
    31   25    8 ar   
    32    5   29 1    
    33    7   30 1    
    34   12   25 ar   
    35   13   12 1    
    36   13   14 1    
    37   14   15 ar   
    38   17   18 ar   
    39   17   16 ar   
    40   18   35 1    
    41   15   16 ar   
    42   15   33 1    
    43   16   34 1    
@<TRIPOS>SUBSTRUCTURE
     1 ****       31 TEMP              0 ****  ****    0 ROOT 
