#	Name:			GSX-2019-EJMC277-5-15a3
#	Creating user name:	Administrator
#	Creation time:		Sun Jul 05 16:13:58 2020

#	Modifying user name:	Administrator
#	Modification time:	Sun Jul 05 16:19:33 2020

@<TRIPOS>MOLECULE
GSX-2019-EJMC277-5-15a3
   58    61     1     0     0
SMALL
MULLIKEN_CHARGES
INVALID_CHARGES

@<TRIPOS>ATOM
      1 C           5.314271   -2.824767    1.301824 C.1       1 <1>         0.231000 
      2 N           5.976881   -3.773223    1.423774 N.1       1 <1>        -0.475100 
      3 C           4.308651   -1.093436   -0.120596 C.ar      1 <1>        -0.230900 
      4 C           3.518808    0.045192   -0.285165 C.ar      1 <1>         0.180200 
      5 C           2.922105    0.585614    0.860661 C.ar      1 <1>         0.231000 
      6 C           3.095692    0.064177    2.148483 C.ar      1 <1>         0.177400 
      7 C           3.892229   -1.074996    2.275768 C.ar      1 <1>        -0.232400 
      8 C           4.495182   -1.657331    1.150531 C.ar      1 <1>         0.164400 
      9 C           0.901634    1.787109    0.481582 C.ar      1 <1>         0.550000 
     10 C           0.247234    3.028409    0.268607 C.ar      1 <1>         0.003600 
     11 C          -1.138441    2.905979    0.080817 C.ar      1 <1>         0.015900 
     12 N          -1.807770    1.759372    0.075162 N.ar      1 <1>        -0.498300 
     13 C          -1.058039    0.652763    0.272222 C.ar      1 <1>         0.700700 
     14 N           0.265370    0.621561    0.481335 N.ar      1 <1>        -0.555900 
     15 C           0.122879   -3.677575    0.751474 C.ar      1 <1>        -0.158100 
     16 C          -0.115449   -2.315100    0.611144 C.ar      1 <1>        -0.162700 
     17 C          -1.427933   -1.855228    0.404964 C.ar      1 <1>         0.376100 
     18 C          -2.481083   -2.788567    0.343003 C.ar      1 <1>        -0.202900 
     19 C          -2.237552   -4.144868    0.482973 C.ar      1 <1>        -0.139500 
     20 C          -0.926506   -4.608238    0.690209 C.ar      1 <1>         0.134700 
     21 O           2.223012    1.790528    0.719570 O.3       1 <1>        -0.524500 
     22 N          -1.781425   -0.509311    0.248642 N.pl3     1 <1>        -0.761800 
     23 C          -0.671078   -6.009326    0.836130 C.1       1 <1>         0.232500 
     24 N          -0.471123   -7.149643    0.954090 N.1       1 <1>        -0.476700 
     25 C           0.950206    4.336444    0.202581 C.2       1 <1>         0.387000 
     26 C           3.311676    0.681539   -1.636365 C.3       1 <1>        -0.542200 
     27 C           2.447564    0.715794    3.343368 C.3       1 <1>        -0.538400 
     28 C           0.097184    5.610753    0.170352 C.3       1 <1>        -0.192900 
     29 O           2.167161    4.422003    0.135898 O.2       1 <1>        -0.461400 
     30 N           0.913871    6.764619    0.475408 N.3       1 <1>        -0.554500 
     31 C           0.375869    8.052251    0.042040 C.3       1 <1>        -0.147200 
     32 C           0.346262    8.301902   -1.459380 C.3       1 <1>        -0.100900 
     33 C           0.439197    9.712869   -1.987633 C.3       1 <1>        -0.317100 
     34 C           1.599893    8.763730   -2.164827 C.3       1 <1>        -0.312400 
     35 H           4.791016   -1.544030   -0.982387 H         1 <1>         0.158400 
     36 H           4.053438   -1.512292    3.256065 H         1 <1>         0.158500 
     37 H          -1.743375    3.793524   -0.088605 H         1 <1>         0.168200 
     38 H           1.138079   -4.026830    0.910506 H         1 <1>         0.169100 
     39 H           0.701152   -1.609989    0.659646 H         1 <1>         0.197600 
     40 H          -3.499129   -2.440996    0.183754 H         1 <1>         0.142300 
     41 H          -3.058261   -4.852925    0.433364 H         1 <1>         0.163300 
     42 H          -2.764875   -0.325639    0.090047 H         1 <1>         0.354500 
     43 H           2.287206    0.520486   -1.995122 H         1 <1>         0.171600 
     44 H           3.995260    0.255564   -2.375675 H         1 <1>         0.165500 
     45 H           3.472940    1.763469   -1.590029 H         1 <1>         0.195300 
     46 H           1.355805    0.622048    3.299346 H         1 <1>         0.174500 
     47 H           2.681146    1.784929    3.386118 H         1 <1>         0.186200 
     48 H           2.788171    0.250185    4.272163 H         1 <1>         0.166100 
     49 H          -0.725383    5.532062    0.895278 H         1 <1>         0.157800 
     50 H          -0.381770    5.637015   -0.831536 H         1 <1>         0.139800 
     51 H           1.847906    6.608112    0.101786 H         1 <1>         0.319700 
     52 H           0.980448    8.837248    0.516357 H         1 <1>         0.138200 
     53 H          -0.636278    8.153120    0.457877 H         1 <1>         0.137500 
     54 H          -0.296011    7.630583   -2.028116 H         1 <1>         0.133900 
     55 H           0.548392   10.518296   -1.264721 H         1 <1>         0.150900 
     56 H          -0.149594    9.981333   -2.860430 H         1 <1>         0.150800 
     57 H           1.808766    8.381596   -3.160370 H         1 <1>         0.150800 
     58 H           2.489862    8.933224   -1.562128 H         1 <1>         0.150700 
@<TRIPOS>BOND
     1   26   44 1    
     2   26   43 1    
     3   34   57 1    
     4   26   45 1    
     5    4   26 1    
     6    3   35 1    
     7   33   56 1    
     8   33   34 1    
     9   34   58 1    
    10   32   34 1    
    11    4    3 ar   
    12    3    8 ar   
    13   32   54 1    
    14    5    4 ar   
    15   32   33 1    
    16   33   55 1    
    17   31   32 1    
    18   23   24 3    
    19   20   23 1    
    20   28   50 1    
    21    1    2 3    
    22   19   41 1    
    23   19   20 ar   
    24   15   20 ar   
    25   18   19 ar   
    26   15   38 1    
    27   16   15 ar   
    28    8    1 1    
    29   18   40 1    
    30   17   18 ar   
    31   17   16 ar   
    32   16   39 1    
    33   22   17 1    
    34    8    7 ar   
    35   22   42 1    
    36   13   22 1    
    37   14   13 ar   
    38   12   13 ar   
    39   25   29 2    
    40    9   14 ar   
    41   21    5 1    
    42    5    6 ar   
    43   11   12 ar   
    44   10    9 ar   
    45    9   21 1    
    46   10   11 ar   
    47   11   37 1    
    48   25   10 1    
    49   28   25 1    
    50   30   51 1    
    51   30   28 1    
    52   28   49 1    
    53   31   30 1    
    54   31   52 1    
    55   31   53 1    
    56    7    6 ar   
    57    7   36 1    
    58    6   27 1    
    59   27   46 1    
    60   27   47 1    
    61   27   48 1    
@<TRIPOS>SUBSTRUCTURE
     1 ****       57 TEMP              0 ****  ****    0 ROOT 
