#	Name:			GSX-2019-EJMC277-5-15a7
#	Creating user name:	Administrator
#	Creation time:		Sun Jul 05 16:13:58 2020

#	Modifying user name:	Administrator
#	Modification time:	Sun Jul 05 16:19:33 2020

@<TRIPOS>MOLECULE
GSX-2019-EJMC277-5-15a7
   48    50     1     0     0
SMALL
MULLIKEN_CHARGES
INVALID_CHARGES

@<TRIPOS>ATOM
      1 C           5.260996   -2.823542    1.561138 C.1       1 <1>         0.231100 
      2 N           5.913859   -3.769256    1.742006 N.1       1 <1>        -0.474500 
      3 C           4.256791   -1.183899    0.032756 C.ar      1 <1>        -0.231500 
      4 C           3.480151   -0.048468   -0.202310 C.ar      1 <1>         0.178900 
      5 C           2.908288    0.581465    0.909921 C.ar      1 <1>         0.231900 
      6 C           3.091270    0.147753    2.228678 C.ar      1 <1>         0.178900 
      7 C           3.873808   -0.990716    2.426632 C.ar      1 <1>        -0.231500 
      8 C           4.454334   -1.658995    1.338117 C.ar      1 <1>         0.164400 
      9 C           0.899945    1.788655    0.491520 C.ar      1 <1>         0.545300 
     10 C           0.244583    3.031702    0.285103 C.ar      1 <1>         0.006800 
     11 C          -1.138291    2.905245    0.075176 C.ar      1 <1>         0.012500 
     12 N          -1.806078    1.757752    0.062680 N.ar      1 <1>        -0.497900 
     13 C          -1.058009    0.652616    0.272338 C.ar      1 <1>         0.700400 
     14 N           0.265103    0.622323    0.485802 N.ar      1 <1>        -0.555200 
     15 C           0.109865   -3.675065    0.812211 C.ar      1 <1>        -0.158100 
     16 C          -0.125314   -2.312825    0.663219 C.ar      1 <1>        -0.162700 
     17 C          -1.431373   -1.854627    0.417944 C.ar      1 <1>         0.375900 
     18 C          -2.481913   -2.788605    0.327242 C.ar      1 <1>        -0.202800 
     19 C          -2.241755   -4.144559    0.476409 C.ar      1 <1>        -0.139500 
     20 C          -0.936791   -4.606499    0.721918 C.ar      1 <1>         0.134800 
     21 O           2.226078    1.787095    0.703214 O.3       1 <1>        -0.522800 
     22 N          -1.781758   -0.508978    0.252103 N.pl3     1 <1>        -0.761600 
     23 C          -0.684482   -6.007125    0.876775 C.1       1 <1>         0.232600 
     24 N          -0.486859   -7.147268    1.001515 N.1       1 <1>        -0.476300 
     25 C           0.930923    4.350996    0.286077 C.2       1 <1>         0.365000 
     26 C           3.262492    0.489467   -1.593724 C.3       1 <1>        -0.539200 
     27 C           2.466459    0.891125    3.381924 C.3       1 <1>        -0.539200 
     28 C           0.079705    5.618339    0.047255 C.3       1 <1>        -0.246600 
     29 O           2.133530    4.466897    0.467305 O.2       1 <1>        -0.454900 
     30 N           0.828849    6.863065    0.064518 N.3       1 <1>        -0.682900 
     31 H           4.719761   -1.702039   -0.801277 H         1 <1>         0.158800 
     32 H           4.042233   -1.360175    3.433365 H         1 <1>         0.158800 
     33 H          -1.745175    3.790954   -0.094082 H         1 <1>         0.169300 
     34 H           1.120158   -4.023524    1.001397 H         1 <1>         0.169200 
     35 H           0.689029   -1.607131    0.734969 H         1 <1>         0.197400 
     36 H          -3.494930   -2.441545    0.137636 H         1 <1>         0.142800 
     37 H          -3.060107   -4.853291    0.404270 H         1 <1>         0.163700 
     38 H          -2.763228   -0.325715    0.080817 H         1 <1>         0.354900 
     39 H           2.216722    0.371526   -1.903051 H         1 <1>         0.173100 
     40 H           3.888182   -0.039907   -2.317272 H         1 <1>         0.166300 
     41 H           3.498389    1.557641   -1.645099 H         1 <1>         0.188200 
     42 H           1.373653    0.797122    3.365989 H         1 <1>         0.173100 
     43 H           2.701807    1.959668    3.336527 H         1 <1>         0.188100 
     44 H           2.823313    0.496985    4.337323 H         1 <1>         0.166300 
     45 H          -0.711068    5.669387    0.808206 H         1 <1>         0.167900 
     46 H          -0.436901    5.528274   -0.918173 H         1 <1>         0.167900 
     47 H           1.574250    6.801250   -0.628605 H         1 <1>         0.306300 
     48 H           1.322939    6.930590    0.953954 H         1 <1>         0.306300 
@<TRIPOS>BOND
     1   26   40 1    
     2   26   39 1    
     3   26   41 1    
     4    4   26 1    
     5    3   31 1    
     6    4    3 ar   
     7    5    4 ar   
     8    3    8 ar   
     9   28   46 1    
    10   30   47 1    
    11   18   36 1    
    12   22   38 1    
    13   19   37 1    
    14   18   19 ar   
    15   17   18 ar   
    16   19   20 ar   
    17    1    2 3    
    18   22   17 1    
    19   13   22 1    
    20   11   33 1    
    21   17   16 ar   
    22   11   12 ar   
    23   13   12 ar   
    24   20   23 1    
    25   15   20 ar   
    26   23   24 3    
    27   16   15 ar   
    28   16   35 1    
    29   15   34 1    
    30   10   11 ar   
    31   25   29 2    
    32   14   13 ar   
    33    8    1 1    
    34   10   25 1    
    35   25   28 1    
    36    8    7 ar   
    37    9   10 ar   
    38   28   30 1    
    39   28   45 1    
    40    9   14 ar   
    41   30   48 1    
    42   21    9 1    
    43    5   21 1    
    44    5    6 ar   
    45    7    6 ar   
    46    7   32 1    
    47    6   27 1    
    48   27   43 1    
    49   27   42 1    
    50   27   44 1    
@<TRIPOS>SUBSTRUCTURE
     1 ****        2 TEMP              0 ****  ****    0 ROOT 
