#	Name:			GSX-2011-BMC-7093-1a
#	Creating user name:	Administrator
#	Creation time:		Sun Jul 05 16:13:49 2020

#	Modifying user name:	Administrator
#	Modification time:	Sun Jul 05 16:19:33 2020

@<TRIPOS>MOLECULE
GSX-2011-BMC-7093-1a
   40    42     1     0     0
SMALL
MULLIKEN_CHARGES
INVALID_CHARGES
Gaussian 16 #p B3LYP/6-31G* opt
@<TRIPOS>ATOM
      1 N          -0.274636   -7.110127    1.029333 N.1       1 <1>        -0.487200 
      2 C          -0.512176   -5.977653    0.898942 C.1       1 <1>         0.226200 
      3 C          -0.805910   -4.586634    0.739444 C.ar      1 <1>         0.130500 
      4 C          -2.122894   -4.158982    0.493947 C.ar      1 <1>        -0.141000 
      5 C          -2.399145   -2.810900    0.340428 C.ar      1 <1>        -0.205400 
      6 C          -1.375074   -1.844935    0.425952 C.ar      1 <1>         0.382200 
      7 N          -1.754651   -0.514215    0.256568 N.pl3     1 <1>        -0.763000 
      8 C          -1.042313    0.667364    0.273672 C.ar      1 <1>         0.693200 
      9 N          -1.812828    1.755292    0.057412 N.ar      1 <1>        -0.497300 
     10 C          -1.155999    2.914121    0.070126 C.ar      1 <1>         0.063200 
     11 C           0.214755    3.032179    0.285475 C.ar      1 <1>        -0.229800 
     12 C           0.903321    1.825643    0.493234 C.ar      1 <1>         0.556500 
     13 O           2.225218    1.708616    0.702304 O.2       1 <1>        -0.495100 
     14 C           3.080189    2.873659    0.746462 C.3       1 <1>         0.130700 
     15 C           4.488438    2.383357    0.409121 C.3       1 <1>        -0.274900 
     16 C           5.507094    3.531655    0.497131 C.3       1 <1>        -0.271900 
     17 C           5.467084    4.218850    1.871040 C.3       1 <1>        -0.257900 
     18 C           4.046603    4.690416    2.217031 C.3       1 <1>        -0.269000 
     19 C           3.032455    3.537161    2.126938 C.3       1 <1>        -0.284500 
     20 N           0.274073    0.647411    0.489145 N.ar      1 <1>        -0.538500 
     21 C          -0.055651   -2.270727    0.671923 C.ar      1 <1>        -0.162700 
     22 C           0.214408   -3.624806    0.824861 C.ar      1 <1>        -0.154400 
     23 H          -2.922723   -4.889167    0.425116 H         1 <1>         0.156100 
     24 H          -3.421521   -2.491867    0.150818 H         1 <1>         0.135800 
     25 H          -2.737900   -0.348279    0.083105 H         1 <1>         0.346800 
     26 H          -1.758255    3.805264   -0.099633 H         1 <1>         0.152400 
     27 H           0.693676    4.001366    0.293676 H         1 <1>         0.146700 
     28 H           2.755262    3.581733   -0.027953 H         1 <1>         0.133600 
     29 H           4.487723    1.933277   -0.590221 H         1 <1>         0.150600 
     30 H           4.754858    1.588301    1.118294 H         1 <1>         0.150300 
     31 H           6.512709    3.147494    0.289161 H         1 <1>         0.144800 
     32 H           5.290443    4.272837   -0.286170 H         1 <1>         0.133100 
     33 H           6.163045    5.066401    1.891309 H         1 <1>         0.138700 
     34 H           5.810338    3.511781    2.639991 H         1 <1>         0.136600 
     35 H           4.020234    5.125855    3.223061 H         1 <1>         0.144100 
     36 H           3.750987    5.492557    1.524453 H         1 <1>         0.131800 
     37 H           2.019600    3.894628    2.345882 H         1 <1>         0.144900 
     38 H           3.268477    2.770695    2.877258 H         1 <1>         0.151500 
     39 H           0.735327   -1.537904    0.739173 H         1 <1>         0.195800 
     40 H           1.233895   -3.946010    1.014028 H         1 <1>         0.156600 
@<TRIPOS>BOND
     1   15   29 1    
     2   16   32 1    
     3   16   31 1    
     4   14   28 1    
     5   15   16 1    
     6   16   17 1    
     7   15   30 1    
     8   14   15 1    
     9   13   14 1    
    10   14   19 1    
    11   11   27 1    
    12   12   13 1    
    13   12   11 ar   
    14   10   11 ar   
    15   10   26 1    
    16   20   12 ar   
    17    9   10 ar   
    18    8   20 ar   
    19    8    9 ar   
    20    7    8 1    
    21   21   39 1    
    22    7   25 1    
    23    6    7 1    
    24   21    6 ar   
    25   21   22 ar   
    26    6    5 ar   
    27   22   40 1    
    28   22    3 ar   
    29    5   24 1    
    30    5    4 ar   
    31    3    4 ar   
    32    3    2 1    
    33    4   23 1    
    34    2    1 3    
    35   17   33 1    
    36   17   18 1    
    37   17   34 1    
    38   18   36 1    
    39   18   19 1    
    40   18   35 1    
    41   19   37 1    
    42   19   38 1    
@<TRIPOS>SUBSTRUCTURE
     1 ****       39 TEMP              0 ****  ****    0 ROOT 
