#	Name:			GSX-2019-EJMC277-5-15a5
#	Creating user name:	Administrator
#	Creation time:		Sun Jul 05 16:13:58 2020

#	Modifying user name:	Administrator
#	Modification time:	Sun Jul 05 16:19:33 2020

@<TRIPOS>MOLECULE
GSX-2019-EJMC277-5-15a5
   62    64     1     0     0
SMALL
MULLIKEN_CHARGES
INVALID_CHARGES

@<TRIPOS>ATOM
      1 C           5.490441   -2.723331    0.741856 C.1       1 <1>         0.231100 
      2 N           6.191936   -3.651346    0.745482 N.1       1 <1>        -0.475600 
      3 C           4.372673   -0.898601   -0.463140 C.ar      1 <1>        -0.229500 
      4 C           3.537599    0.219688   -0.485370 C.ar      1 <1>         0.185000 
      5 C           2.965925    0.619636    0.729246 C.ar      1 <1>         0.228100 
      6 C           3.202435   -0.023766    1.950258 C.ar      1 <1>         0.172300 
      7 C           4.041751   -1.138807    1.934565 C.ar      1 <1>        -0.233600 
      8 C           4.624438   -1.580224    0.736654 C.ar      1 <1>         0.165100 
      9 C           0.899400    1.781953    0.471388 C.ar      1 <1>         0.560200 
     10 C           0.249715    3.019590    0.258470 C.ar      1 <1>        -0.028100 
     11 C          -1.135826    2.910630    0.084189 C.ar      1 <1>         0.027400 
     12 N          -1.805664    1.760667    0.085229 N.ar      1 <1>        -0.497500 
     13 C          -1.058825    0.653112    0.272685 C.ar      1 <1>         0.698400 
     14 N           0.267589    0.615910    0.476092 N.ar      1 <1>        -0.555200 
     15 C           0.116571   -3.685717    0.699841 C.ar      1 <1>        -0.157500 
     16 C          -0.119779   -2.321755    0.571048 C.ar      1 <1>        -0.164200 
     17 C          -1.434182   -1.856101    0.390177 C.ar      1 <1>         0.377400 
     18 C          -2.490964   -2.786680    0.340208 C.ar      1 <1>        -0.203300 
     19 C          -2.249340   -4.144386    0.468388 C.ar      1 <1>        -0.139700 
     20 C          -0.936445   -4.613165    0.651500 C.ar      1 <1>         0.133900 
     21 O           2.220523    1.803843    0.733109 O.3       1 <1>        -0.540400 
     22 N          -1.785337   -0.509296    0.246774 N.pl3     1 <1>        -0.762900 
     23 C          -0.682379   -6.015365    0.786108 C.1       1 <1>         0.231600 
     24 N          -0.482357   -7.156651    0.895946 N.1       1 <1>        -0.478000 
     25 C           0.973338    4.316508    0.119183 C.2       1 <1>         0.417300 
     26 C           3.252782    0.974380   -1.760076 C.3       1 <1>        -0.553700 
     27 C           2.573597    0.475705    3.226234 C.3       1 <1>        -0.535700 
     28 C           0.343222    5.566935    0.746015 C.3       1 <1>        -0.223600 
     29 O           2.073185    4.384497   -0.411291 O.2       1 <1>        -0.476500 
     30 N           0.890876    6.823319    0.274111 N.3       1 <1>        -0.535500 
     31 C           0.277591    7.384489   -0.926677 C.3       1 <1>        -0.174200 
     32 C           0.363344    6.575203   -2.229890 C.3       1 <1>         0.365700 
     33 O          -0.084463    7.358582   -3.326130 O.3       1 <1>        -0.473600 
     34 O          -0.485747    5.465183   -2.107694 O.3       1 <1>        -0.482600 
     35 C           0.936203    8.069547   -4.003011 C.3       1 <1>        -0.208300 
     36 C          -0.394643    4.552421   -3.197800 C.3       1 <1>        -0.213700 
     37 H           4.839199   -1.240990   -1.381528 H         1 <1>         0.157900 
     38 H           4.252726   -1.667188    2.859095 H         1 <1>         0.157900 
     39 H          -1.728244    3.801061   -0.110351 H         1 <1>         0.181700 
     40 H           1.133372   -4.039119    0.838395 H         1 <1>         0.167300 
     41 H           0.699903   -1.619564    0.607968 H         1 <1>         0.195900 
     42 H          -3.510395   -2.434820    0.200309 H         1 <1>         0.141800 
     43 H          -3.073002   -4.849627    0.428226 H         1 <1>         0.162500 
     44 H          -2.769327   -0.321690    0.096500 H         1 <1>         0.353600 
     45 H           2.269227    0.700023   -2.163765 H         1 <1>         0.170600 
     46 H           4.000082    0.742019   -2.523917 H         1 <1>         0.163900 
     47 H           3.241654    2.054941   -1.587137 H         1 <1>         0.205400 
     48 H           2.952418   -0.079083    4.088904 H         1 <1>         0.165600 
     49 H           1.483669    0.358492    3.199909 H         1 <1>         0.177400 
     50 H           2.782897    1.539559    3.381558 H         1 <1>         0.178200 
     51 H           0.526928    5.469038    1.830012 H         1 <1>         0.168400 
     52 H          -0.742961    5.571965    0.624310 H         1 <1>         0.167700 
     53 H           1.892208    6.700477    0.131253 H         1 <1>         0.310000 
     54 H           0.745058    8.359058   -1.109303 H         1 <1>         0.148300 
     55 H          -0.785091    7.573062   -0.732725 H         1 <1>         0.160700 
     56 H           1.399540    6.238481   -2.418645 H         1 <1>         0.110200 
     57 H           0.464948    8.555233   -4.861049 H         1 <1>         0.165700 
     58 H           1.730329    7.397001   -4.362687 H         1 <1>         0.137700 
     59 H           1.397044    8.844524   -3.372484 H         1 <1>         0.138800 
     60 H          -1.097517    3.742534   -2.989457 H         1 <1>         0.156700 
     61 H           0.621298    4.138787   -3.276527 H         1 <1>         0.141400 
     62 H          -0.665931    5.038908   -4.139941 H         1 <1>         0.164100 
@<TRIPOS>BOND
     1   26   46 1    
     2   36   62 1    
     3   35   57 1    
     4   35   58 1    
     5    3   37 1    
     6   36   61 1    
     7   26   45 1    
     8   33   35 1    
     9   35   59 1    
    10   36   60 1    
    11   34   36 1    
    12   26   47 1    
    13    4   26 1    
    14   32   33 1    
    15    4    3 ar   
    16    3    8 ar   
    17    1    2 3    
    18   32   56 1    
    19    5    4 ar   
    20   23   24 3    
    21    8    1 1    
    22   32   34 1    
    23   20   23 1    
    24   31   32 1    
    25   19   20 ar   
    26   15   20 ar   
    27   19   43 1    
    28   15   40 1    
    29    7    8 ar   
    30   18   19 ar   
    31   16   15 ar   
    32   18   42 1    
    33   17   18 ar   
    34   16   41 1    
    35   17   16 ar   
    36   22   17 1    
    37   22   44 1    
    38   13   22 1    
    39   25   29 2    
    40   21    5 1    
    41    5    6 ar   
    42   14   13 ar   
    43   12   13 ar   
    44    9   14 ar   
    45    9   21 1    
    46   10    9 ar   
    47   11   12 ar   
    48   31   54 1    
    49   31   55 1    
    50   30   31 1    
    51   10   11 ar   
    52   11   39 1    
    53   25   10 1    
    54    6    7 ar   
    55    7   38 1    
    56   28   25 1    
    57    6   27 1    
    58   30   53 1    
    59   30   28 1    
    60   28   52 1    
    61   28   51 1    
    62   27   49 1    
    63   27   50 1    
    64   27   48 1    
@<TRIPOS>SUBSTRUCTURE
     1 ****       62 TEMP              0 ****  ****    0 ROOT 
