#	Name:			GSX-2011-BMC-7093-1f
#	Creating user name:	Administrator
#	Creation time:		Sun Jul 05 16:13:50 2020

#	Modifying user name:	Administrator
#	Modification time:	Sun Jul 05 16:19:33 2020

@<TRIPOS>MOLECULE
GSX-2011-BMC-7093-1f
   40    42     1     0     0
SMALL
MULLIKEN_CHARGES
INVALID_CHARGES
Gaussian 16 #p B3LYP/6-31G* opt
@<TRIPOS>ATOM
      1 C          -1.984226    4.189811   -0.160396 C.3       1 <1>        -0.513700 
      2 C          -1.155052    2.954340    0.070248 C.ar      1 <1>         0.339800 
      3 C           0.219746    3.027095    0.274968 C.ar      1 <1>        -0.269300 
      4 C           0.891593    1.806274    0.483968 C.ar      1 <1>         0.560900 
      5 O           2.210705    1.684170    0.717658 O.3       1 <1>        -0.498300 
      6 C           3.061217    2.856275    0.764652 C.3       1 <1>         0.115100 
      7 C           3.436393    3.312097   -0.655688 C.3       1 <1>        -0.288100 
      8 C           4.586071    2.368507   -1.043206 C.3       1 <1>        -0.271800 
      9 C           5.422861    2.283215    0.248480 C.3       1 <1>        -0.275500 
     10 C           4.392290    2.398814    1.406110 C.3       1 <1>        -0.293700 
     11 N           0.249852    0.642506    0.477100 N.ar      1 <1>        -0.553400 
     12 C          -1.076602    0.693041    0.266366 C.ar      1 <1>         0.695100 
     13 N          -1.667814   -0.556597    0.273717 N.pl3     1 <1>        -0.769700 
     14 C          -2.984554   -0.977685    0.101674 C.ar      1 <1>         0.383700 
     15 C          -4.072020   -0.115710   -0.136379 C.ar      1 <1>        -0.159900 
     16 C          -5.348349   -0.640458   -0.293911 C.ar      1 <1>        -0.154100 
     17 C          -5.582373   -2.023771   -0.220841 C.ar      1 <1>         0.130000 
     18 C          -6.902361   -2.549924   -0.385365 C.1       1 <1>         0.225600 
     19 N          -7.976531   -2.978955   -0.519220 N.1       1 <1>        -0.487700 
     20 C          -4.495082   -2.883603    0.017088 C.ar      1 <1>        -0.141000 
     21 C          -3.220341   -2.366663    0.175111 C.ar      1 <1>        -0.206100 
     22 N          -1.820854    1.785581    0.063911 N.ar      1 <1>        -0.543300 
     23 H          -1.375726    5.098234   -0.146912 H         1 <1>         0.154600 
     24 H          -2.758443    4.271994    0.610661 H         1 <1>         0.179600 
     25 H          -2.498863    4.123005   -1.125406 H         1 <1>         0.179300 
     26 H           0.728608    3.980876    0.262451 H         1 <1>         0.143000 
     27 H           2.557483    3.627307    1.356486 H         1 <1>         0.141900 
     28 H           2.586974    3.288736   -1.345112 H         1 <1>         0.154800 
     29 H           3.798515    4.348475   -0.607774 H         1 <1>         0.139400 
     30 H           4.178690    1.383354   -1.298930 H         1 <1>         0.157300 
     31 H           5.160291    2.724988   -1.904427 H         1 <1>         0.141700 
     32 H           6.128681    3.121859    0.288462 H         1 <1>         0.139100 
     33 H           6.014356    1.364599    0.307922 H         1 <1>         0.146900 
     34 H           4.718089    3.115334    2.166918 H         1 <1>         0.146100 
     35 H           4.225462    1.443716    1.911501 H         1 <1>         0.173000 
     36 H          -0.985200   -1.285422    0.438623 H         1 <1>         0.347000 
     37 H          -3.898017    0.948977   -0.193453 H         1 <1>         0.184900 
     38 H          -6.181707    0.030721   -0.477144 H         1 <1>         0.154900 
     39 H          -4.658387   -3.954861    0.076479 H         1 <1>         0.155800 
     40 H          -2.387667   -3.041858    0.358603 H         1 <1>         0.136000 
@<TRIPOS>BOND
     1   10   34 1    
     2   10   35 1    
     3    6   27 1    
     4    6   10 1    
     5   10    9 1    
     6    1   24 1    
     7    5    6 1    
     8    6    7 1    
     9    4    5 1    
    10   11    4 ar   
    11    4    3 ar   
    12   12   11 ar   
    13   13   36 1    
    14    3   26 1    
    15    2    3 ar   
    16   13   12 1    
    17   12   22 ar   
    18   21   40 1    
    19   14   13 1    
    20   22    2 ar   
    21    2    1 1    
    22   21   14 ar   
    23   21   20 ar   
    24   14   15 ar   
    25    1   23 1    
    26   20   39 1    
    27    1   25 1    
    28   20   17 ar   
    29   15   37 1    
    30   15   16 ar   
    31   17   16 ar   
    32   17   18 1    
    33   16   38 1    
    34    9   32 1    
    35   18   19 3    
    36    9   33 1    
    37    9    8 1    
    38    7   29 1    
    39    7    8 1    
    40    7   28 1    
    41    8   30 1    
    42    8   31 1    
@<TRIPOS>SUBSTRUCTURE
     1 ****       40 TEMP              0 ****  ****    0 ROOT 
