#	Name:			GSX-2019-EJMC277-5-15b1
#	Creating user name:	Administrator
#	Creation time:		Sun Jul 05 16:13:58 2020

#	Modifying user name:	Administrator
#	Modification time:	Sun Jul 05 16:19:33 2020

@<TRIPOS>MOLECULE
GSX-2019-EJMC277-5-15b1
   64    66     1     0     0
SMALL
MULLIKEN_CHARGES
INVALID_CHARGES

@<TRIPOS>ATOM
      1 C           5.291993   -2.966166    1.392767 C.3       1 <1>        -0.534300 
      2 C           4.264846   -1.162159   -0.057093 C.ar      1 <1>        -0.275800 
      3 C           3.506800   -0.002691   -0.249720 C.ar      1 <1>         0.192200 
      4 C           2.908816    0.565183    0.878501 C.ar      1 <1>         0.199900 
      5 C           3.055003    0.046000    2.167146 C.ar      1 <1>         0.192100 
      6 C           3.822794   -1.115774    2.304259 C.ar      1 <1>        -0.278100 
      7 C           4.435241   -1.734375    1.208673 C.ar      1 <1>         0.209700 
      8 C           0.905621    1.787345    0.484858 C.ar      1 <1>         0.553800 
      9 C           0.245574    3.029306    0.272153 C.ar      1 <1>         0.004000 
     10 C          -1.139046    2.905947    0.079214 C.ar      1 <1>         0.013800 
     11 N          -1.810327    1.759405    0.071975 N.ar      1 <1>        -0.501700 
     12 C          -1.058043    0.655675    0.272155 C.ar      1 <1>         0.699100 
     13 N           0.262505    0.624131    0.482246 N.ar      1 <1>        -0.553100 
     14 C           0.160501   -3.653429    0.771207 C.ar      1 <1>        -0.159200 
     15 C          -0.093265   -2.294981    0.626032 C.ar      1 <1>        -0.163200 
     16 C          -1.410617   -1.852012    0.410272 C.ar      1 <1>         0.374900 
     17 C          -2.451327   -2.799714    0.344151 C.ar      1 <1>        -0.202700 
     18 C          -2.191620   -4.152687    0.489028 C.ar      1 <1>        -0.140700 
     19 C          -0.875939   -4.598655    0.705823 C.ar      1 <1>         0.133900 
     20 O           2.222749    1.785983    0.715557 O.3       1 <1>        -0.524500 
     21 N          -1.777460   -0.511381    0.249778 N.pl3     1 <1>        -0.761800 
     22 C          -0.598769   -5.994620    0.857245 C.1       1 <1>         0.229600 
     23 N          -0.373611   -7.130058    0.980515 N.1       1 <1>        -0.482100 
     24 C           0.942483    4.338360    0.211074 C.2       1 <1>         0.383200 
     25 C           3.329913    0.616621   -1.613857 C.3       1 <1>        -0.540600 
     26 C           2.404424    0.711842    3.353863 C.3       1 <1>        -0.539300 
     27 C           0.086238    5.609858    0.116249 C.3       1 <1>        -0.184100 
     28 O           2.160751    4.435138    0.192481 O.2       1 <1>        -0.462700 
     29 N           0.891845    6.777671    0.394046 N.3       1 <1>        -0.576000 
     30 C           0.383060    8.008848   -0.196280 C.3       1 <1>        -0.120300 
     31 C           1.296161    9.180784    0.178436 C.3       1 <1>        -0.120200 
     32 N           0.943099   10.426345   -0.501619 N.3       1 <1>        -0.371200 
     33 C           2.022618   11.401147   -0.415238 C.3       1 <1>        -0.293000 
     34 C          -0.305836   10.998621   -0.014057 C.3       1 <1>        -0.300600 
     35 H           4.979714   -3.544760    2.268474 H         1 <1>         0.159300 
     36 H           6.346879   -2.698409    1.539192 H         1 <1>         0.169500 
     37 H           5.243780   -3.623308    0.517956 H         1 <1>         0.159900 
     38 H           4.738923   -1.624362   -0.920532 H         1 <1>         0.121900 
     39 H           3.949334   -1.541844    3.297322 H         1 <1>         0.122100 
     40 H          -1.744123    3.792831   -0.091973 H         1 <1>         0.165700 
     41 H           1.179707   -3.986732    0.937790 H         1 <1>         0.163200 
     42 H           0.715340   -1.580936    0.678282 H         1 <1>         0.210700 
     43 H          -3.472644   -2.465261    0.177625 H         1 <1>         0.140400 
     44 H          -3.003105   -4.871040    0.436048 H         1 <1>         0.160600 
     45 H          -2.761690   -0.335393    0.087914 H         1 <1>         0.352400 
     46 H           3.518478    1.695102   -1.586892 H         1 <1>         0.186600 
     47 H           2.306395    0.476882   -1.985198 H         1 <1>         0.164300 
     48 H           4.011128    0.161355   -2.338374 H         1 <1>         0.157500 
     49 H           2.748967    0.260827    4.288756 H         1 <1>         0.158300 
     50 H           1.312252    0.612481    3.316366 H         1 <1>         0.167000 
     51 H           2.631257    1.783143    3.383641 H         1 <1>         0.179100 
     52 H          -0.758765    5.553843    0.816929 H         1 <1>         0.157400 
     53 H          -0.360942    5.615469   -0.901872 H         1 <1>         0.137800 
     54 H           1.843412    6.582260    0.086294 H         1 <1>         0.319200 
     55 H          -0.629696    8.175043    0.193207 H         1 <1>         0.134900 
     56 H           0.294915    7.965367   -1.298908 H         1 <1>         0.123800 
     57 H           2.319379    8.921509   -0.124435 H         1 <1>         0.132400 
     58 H           1.311570    9.290662    1.280300 H         1 <1>         0.124600 
     59 H           1.755625   12.296509   -0.987695 H         1 <1>         0.146600 
     60 H           2.937148   10.981934   -0.848603 H         1 <1>         0.149000 
     61 H           2.249062   11.716791    0.622961 H         1 <1>         0.117900 
     62 H          -0.532566   11.910299   -0.577374 H         1 <1>         0.148000 
     63 H          -0.272167   11.261033    1.062799 H         1 <1>         0.117900 
     64 H          -1.134736   10.301420   -0.166576 H         1 <1>         0.151200 
@<TRIPOS>BOND
     1   25   48 1    
     2   25   47 1    
     3   25   46 1    
     4    3   25 1    
     5    2   38 1    
     6   30   56 1    
     7    3    2 ar   
     8    4    3 ar   
     9    2    7 ar   
    10   27   53 1    
    11    1   37 1    
    12   33   60 1    
    13   33   59 1    
    14   32   33 1    
    15   31   32 1    
    16   32   34 1    
    17   33   61 1    
    18   24   28 2    
    19   31   57 1    
    20   29   54 1    
    21   30   31 1    
    22   29   30 1    
    23   30   55 1    
    24   34   62 1    
    25   21   45 1    
    26   10   40 1    
    27   17   43 1    
    28    9   24 1    
    29   24   27 1    
    30   21   16 1    
    31   12   21 1    
    32   10   11 ar   
    33   12   11 ar   
    34   17   18 ar   
    35   16   17 ar   
    36   18   44 1    
    37   18   19 ar   
    38   16   15 ar   
    39    9   10 ar   
    40   13   12 ar   
    41   19   22 1    
    42   14   19 ar   
    43   15   42 1    
    44   15   14 ar   
    45   22   23 3    
    46   14   41 1    
    47    8    9 ar   
    48    8   13 ar   
    49   20    8 1    
    50    7    1 1    
    51    1   36 1    
    52    1   35 1    
    53    7    6 ar   
    54   27   29 1    
    55   27   52 1    
    56    4   20 1    
    57    4    5 ar   
    58   31   58 1    
    59   34   64 1    
    60   34   63 1    
    61    6    5 ar   
    62    6   39 1    
    63    5   26 1    
    64   26   51 1    
    65   26   50 1    
    66   26   49 1    
@<TRIPOS>SUBSTRUCTURE
     1 ****       37 TEMP              0 ****  ****    0 ROOT 
