#	Name:			GSX-2019-EJMC277-5-15b7
#	Creating user name:	Administrator
#	Creation time:		Sun Jul 05 16:13:59 2020

#	Modifying user name:	Administrator
#	Modification time:	Sun Jul 05 16:19:33 2020

@<TRIPOS>MOLECULE
GSX-2019-EJMC277-5-15b7
   50    52     1     0     0
SMALL
MULLIKEN_CHARGES
INVALID_CHARGES
Gaussian 16 #p B3LYP/6-31G* opt
@<TRIPOS>ATOM
      1 C           5.260883   -2.958334    1.576224 C.3       1 <1>        -0.534300 
      2 C           4.212383   -1.233535    0.047072 C.ar      1 <1>        -0.276800 
      3 C           3.461859   -0.078157   -0.195805 C.ar      1 <1>         0.191700 
      4 C           2.901108    0.564188    0.911153 C.ar      1 <1>         0.201400 
      5 C           3.075315    0.119904    2.224330 C.ar      1 <1>         0.191700 
      6 C           3.834640   -1.040094    2.411995 C.ar      1 <1>        -0.276800 
      7 C           4.411386   -1.730395    1.340062 C.ar      1 <1>         0.209700 
      8 C           0.904294    1.788434    0.492240 C.ar      1 <1>         0.549200 
      9 C           0.243668    3.031617    0.285065 C.ar      1 <1>         0.005800 
     10 C          -1.138640    2.905400    0.075055 C.ar      1 <1>         0.010300 
     11 N          -1.809056    1.758116    0.062113 N.ar      1 <1>        -0.501500 
     12 C          -1.057996    0.655585    0.272202 C.ar      1 <1>         0.698500 
     13 N           0.262294    0.624492    0.485195 N.ar      1 <1>        -0.552300 
     14 C           0.151593   -3.650825    0.817527 C.ar      1 <1>        -0.159200 
     15 C          -0.100217   -2.292695    0.666372 C.ar      1 <1>        -0.163400 
     16 C          -1.412903   -1.851295    0.420596 C.ar      1 <1>         0.375100 
     17 C          -2.450939   -2.800121    0.332348 C.ar      1 <1>        -0.202800 
     18 C          -2.193235   -4.152648    0.483984 C.ar      1 <1>        -0.140700 
     19 C          -0.882144   -4.597215    0.729765 C.ar      1 <1>         0.133900 
     20 O           2.225064    1.783945    0.703234 O.3       1 <1>        -0.523300 
     21 N          -1.778052   -0.511180    0.252833 N.pl3     1 <1>        -0.762000 
     22 C          -0.606711   -5.992823    0.887757 C.1       1 <1>         0.229600 
     23 N          -0.382840   -7.127839    1.016189 N.1       1 <1>        -0.482100 
     24 C           0.925336    4.352177    0.285516 C.2       1 <1>         0.363700 
     25 C           3.257055    0.457696   -1.590851 C.3       1 <1>        -0.538900 
     26 C           2.462589    0.864726    3.383996 C.3       1 <1>        -0.538900 
     27 C           0.069706    5.617408    0.045525 C.3       1 <1>        -0.246300 
     28 O           2.127316    4.475637    0.466879 O.2       1 <1>        -0.455100 
     29 N           0.816795    6.864251    0.062347 N.3       1 <1>        -0.684100 
     30 H           4.938723   -3.503853    2.469412 H         1 <1>         0.159700 
     31 H           6.315477   -2.689591    1.722890 H         1 <1>         0.169500 
     32 H           5.217625   -3.646390    0.725313 H         1 <1>         0.159700 
     33 H           4.657416   -1.753005   -0.799065 H         1 <1>         0.122100 
     34 H           3.982778   -1.407418    3.425369 H         1 <1>         0.122100 
     35 H          -1.744847    3.791817   -0.094129 H         1 <1>         0.165600 
     36 H           1.167238   -3.983122    1.006877 H         1 <1>         0.163000 
     37 H           0.705719   -1.577221    0.736591 H         1 <1>         0.210400 
     38 H          -3.468689   -2.467042    0.142598 H         1 <1>         0.140600 
     39 H          -3.002612   -4.871933    0.413529 H         1 <1>         0.160600 
     40 H          -2.760719   -0.335318    0.081754 H         1 <1>         0.352400 
     41 H           3.506544    1.522782   -1.648193 H         1 <1>         0.180900 
     42 H           2.212044    0.352352   -1.908767 H         1 <1>         0.165500 
     43 H           3.880194   -0.082433   -2.309349 H         1 <1>         0.158000 
     44 H           2.818745    0.460999    4.336109 H         1 <1>         0.158000 
     45 H           1.368166    0.785005    3.375310 H         1 <1>         0.165500 
     46 H           2.709248    1.931389    3.346290 H         1 <1>         0.180900 
     47 H          -0.721159    5.667520    0.806332 H         1 <1>         0.166300 
     48 H          -0.446261    5.526053   -0.919901 H         1 <1>         0.166300 
     49 H           1.563397    6.799957   -0.629384 H         1 <1>         0.305300 
     50 H           1.311955    6.929306    0.951630 H         1 <1>         0.305300 
@<TRIPOS>BOND
     1   25   43 1    
     2   25   42 1    
     3   25   41 1    
     4    3   25 1    
     5    2   33 1    
     6    3    2 ar   
     7    4    3 ar   
     8    2    7 ar   
     9    1   32 1    
    10   27   48 1    
    11   29   49 1    
    12   18   39 1    
    13   22   23 3    
    14   24   28 2    
    15   19   22 1    
    16   18   19 ar   
    17   17   18 ar   
    18   27   29 1    
    19   29   50 1    
    20   17   38 1    
    21   14   19 ar   
    22   24   27 1    
    23    9   24 1    
    24   16   17 ar   
    25   27   47 1    
    26    8   20 1    
    27   20    4 1    
    28    8    9 ar   
    29    9   10 ar   
    30   13    8 ar   
    31    4    5 ar   
    32   14   36 1    
    33   15   14 ar   
    34   16   15 ar   
    35   21   16 1    
    36   12   13 ar   
    37    7    1 1    
    38    7    6 ar   
    39   10   35 1    
    40   10   11 ar   
    41    1   31 1    
    42    1   30 1    
    43   15   37 1    
    44   12   21 1    
    45   12   11 ar   
    46   21   40 1    
    47    6    5 ar   
    48    6   34 1    
    49    5   26 1    
    50   26   46 1    
    51   26   45 1    
    52   26   44 1    
@<TRIPOS>SUBSTRUCTURE
     1 ****       28 TEMP              0 ****  ****    0 ROOT 
