#	Name:			GSX-2011-BMC-7093-1b
#	Creating user name:	Administrator
#	Creation time:		Sun Jul 05 16:13:49 2020

#	Modifying user name:	Administrator
#	Modification time:	Sun Jul 05 16:19:33 2020

@<TRIPOS>MOLECULE
GSX-2011-BMC-7093-1b
   37    39     1     0     0
SMALL
MULLIKEN_CHARGES
INVALID_CHARGES
Gaussian 16 #p B3LYP/6-31G* opt
@<TRIPOS>ATOM
      1 N          -7.969671   -2.989217   -0.547948 N.1       1 <1>        -0.486900 
      2 C          -6.897070   -2.557971   -0.409343 C.1       1 <1>         0.226200 
      3 C          -5.578661   -2.029413   -0.238597 C.ar      1 <1>         0.130300 
      4 C          -5.346042   -0.646210   -0.315164 C.ar      1 <1>        -0.153700 
      5 C          -4.071297   -0.119254   -0.151343 C.ar      1 <1>        -0.159700 
      6 C          -2.984941   -0.979649    0.096256 C.ar      1 <1>         0.383300 
      7 N          -1.668661   -0.556698    0.275325 N.pl3     1 <1>        -0.764900 
      8 C          -1.080041    0.692223    0.265348 C.ar      1 <1>         0.696000 
      9 N          -1.826065    1.785855    0.052548 N.ar      1 <1>        -0.486500 
     10 C          -1.145498    2.938445    0.070146 C.ar      1 <1>         0.065000 
     11 C           0.220775    3.033566    0.286743 C.ar      1 <1>        -0.227800 
     12 C           0.891895    1.810534    0.491494 C.ar      1 <1>         0.556000 
     13 O           2.213375    1.683054    0.704055 O.2       1 <1>        -0.490600 
     14 C           3.069653    2.836686    0.716577 C.3       1 <1>         0.129400 
     15 C           3.083888    3.594638    2.052013 C.3       1 <1>        -0.297500 
     16 C           4.409743    4.382580    2.004435 C.3       1 <1>        -0.279500 
     17 C           5.365692    3.548912    1.092339 C.3       1 <1>        -0.282800 
     18 C           4.520115    2.370566    0.554534 C.3       1 <1>        -0.288700 
     19 N           0.245794    0.649430    0.482276 N.ar      1 <1>        -0.549700 
     20 C          -3.219038   -2.368483    0.173124 C.ar      1 <1>        -0.205900 
     21 C          -4.492196   -2.887339    0.008957 C.ar      1 <1>        -0.140800 
     22 H          -6.178832    0.023485   -0.505886 H         1 <1>         0.156300 
     23 H          -3.899366    0.945663   -0.211467 H         1 <1>         0.188800 
     24 H          -0.986575   -1.284928    0.445718 H         1 <1>         0.348000 
     25 H          -1.735037    3.838366   -0.097268 H         1 <1>         0.152600 
     26 H           0.716972    3.993826    0.302341 H         1 <1>         0.147200 
     27 H           2.790383    3.501527   -0.111543 H         1 <1>         0.138400 
     28 H           3.098234    2.849549    2.857086 H         1 <1>         0.157300 
     29 H           2.207815    4.231611    2.208354 H         1 <1>         0.146800 
     30 H           4.245127    5.376200    1.572259 H         1 <1>         0.143600 
     31 H           4.820085    4.541556    3.006125 H         1 <1>         0.149900 
     32 H           6.241326    3.187206    1.639586 H         1 <1>         0.149900 
     33 H           5.744210    4.165861    0.270495 H         1 <1>         0.145600 
     34 H           4.652642    1.475969    1.174038 H         1 <1>         0.160100 
     35 H           4.759850    2.093778   -0.476383 H         1 <1>         0.151500 
     36 H          -2.386758   -3.042013    0.364012 H         1 <1>         0.136500 
     37 H          -4.654780   -3.958600    0.071107 H         1 <1>         0.156400 
@<TRIPOS>BOND
     1   18   35 1    
     2   17   33 1    
     3   14   27 1    
     4   14   18 1    
     5   18   17 1    
     6   18   34 1    
     7   10   25 1    
     8   11   26 1    
     9   10   11 ar   
    10    9   10 ar   
    11   12   11 ar   
    12   13   14 1    
    13   14   15 1    
    14   17   32 1    
    15   17   16 1    
    16    8    9 ar   
    17    5   23 1    
    18   12   13 1    
    19   19   12 ar   
    20    4   22 1    
    21    8   19 ar   
    22    7    8 1    
    23    5    4 ar   
    24    6    5 ar   
    25    4    3 ar   
    26    7    6 1    
    27    7   24 1    
    28    6   20 ar   
    29    3    2 1    
    30    3   21 ar   
    31    2    1 3    
    32   20   21 ar   
    33   20   36 1    
    34   21   37 1    
    35   16   30 1    
    36   16   15 1    
    37   16   31 1    
    38   15   29 1    
    39   15   28 1    
@<TRIPOS>SUBSTRUCTURE
     1 ****       25 TEMP              0 ****  ****    0 ROOT 
