#	Name:			GSX-2011-BMC-7093-1e
#	Creating user name:	Administrator
#	Creation time:		Sun Jul 05 16:13:49 2020

#	Modifying user name:	Administrator
#	Modification time:	Sun Jul 05 16:19:33 2020

@<TRIPOS>MOLECULE
GSX-2011-BMC-7093-1e
   43    45     1     0     0
SMALL
MULLIKEN_CHARGES
INVALID_CHARGES

@<TRIPOS>ATOM
      1 C          -1.933989    4.199386   -0.162836 C.3       1 <1>        -0.513900 
      2 C          -1.122562    2.954515    0.072839 C.ar      1 <1>         0.345400 
      3 C           0.243750    2.997611    0.290904 C.ar      1 <1>        -0.263600 
      4 C           0.889628    1.761740    0.495597 C.ar      1 <1>         0.606300 
      5 O           2.214861    1.796771    0.693894 O.3       1 <1>        -0.529400 
      6 C           2.949624    0.557297    0.883779 C.3       1 <1>         0.143100 
      7 C           2.922527    0.120327    2.347416 C.3       1 <1>        -0.289300 
      8 C           3.647879   -1.237688    2.515419 C.3       1 <1>        -0.270200 
      9 C           4.811413   -1.418225    1.508743 C.3       1 <1>        -0.269500 
     10 C           5.421901   -0.064716    1.118777 C.3       1 <1>        -0.271500 
     11 C           4.384929    0.834120    0.403018 C.3       1 <1>        -0.285000 
     12 N           0.236979    0.606876    0.488423 N.ar      1 <1>        -0.588500 
     13 C          -1.094590    0.685095    0.263484 C.ar      1 <1>         0.697700 
     14 N          -1.707478   -0.554376    0.266048 N.pl3     1 <1>        -0.770900 
     15 C          -3.030259   -0.949105    0.075639 C.ar      1 <1>         0.383700 
     16 C          -4.095020   -0.065039   -0.182305 C.ar      1 <1>        -0.159400 
     17 C          -5.379408   -0.563842   -0.358567 C.ar      1 <1>        -0.154100 
     18 C          -5.643470   -1.941730   -0.284633 C.ar      1 <1>         0.130300 
     19 C          -6.971559   -2.441003   -0.468148 C.1       1 <1>         0.225900 
     20 N          -8.051899   -2.848564   -0.617339 N.1       1 <1>        -0.486900 
     21 C          -4.578619   -2.823293   -0.026610 C.ar      1 <1>        -0.140900 
     22 C          -3.296031   -2.332412    0.149791 C.ar      1 <1>        -0.206400 
     23 N          -1.809013    1.788178    0.056746 N.ar      1 <1>        -0.547600 
     24 H          -2.433181    4.144944   -1.137032 H         1 <1>         0.177400 
     25 H          -1.314181    5.099453   -0.133762 H         1 <1>         0.158300 
     26 H          -2.720127    4.286026    0.595735 H         1 <1>         0.177500 
     27 H           0.807863    3.921858    0.302612 H         1 <1>         0.145400 
     28 H           2.468825   -0.208419    0.269256 H         1 <1>         0.156100 
     29 H           1.888094    0.049848    2.696961 H         1 <1>         0.154300 
     30 H           3.413238    0.896655    2.948303 H         1 <1>         0.141800 
     31 H           4.026600   -1.309381    3.541890 H         1 <1>         0.141300 
     32 H           2.930880   -2.058836    2.394990 H         1 <1>         0.138300 
     33 H           4.446159   -1.917273    0.600610 H         1 <1>         0.135000 
     34 H           5.576678   -2.079044    1.932136 H         1 <1>         0.138600 
     35 H           5.785206    0.435907    2.026103 H         1 <1>         0.139100 
     36 H           6.298231   -0.205015    0.475869 H         1 <1>         0.139900 
     37 H           4.609031    1.890223    0.590784 H         1 <1>         0.154200 
     38 H           4.434759    0.689890   -0.682801 H         1 <1>         0.143200 
     39 H          -1.043274   -1.298094    0.437187 H         1 <1>         0.342100 
     40 H          -3.897296    0.995457   -0.240063 H         1 <1>         0.187100 
     41 H          -6.195420    0.123848   -0.557547 H         1 <1>         0.156000 
     42 H          -4.765304   -3.890750    0.033767 H         1 <1>         0.155900 
     43 H          -2.480783   -3.024454    0.348818 H         1 <1>         0.133500 
@<TRIPOS>BOND
     1   11   38 1    
     2   10   36 1    
     3    9   33 1    
     4   11   37 1    
     5   11   10 1    
     6    6   11 1    
     7    6   28 1    
     8    1   24 1    
     9   10    9 1    
    10   10   35 1    
    11    9   34 1    
    12    9    8 1    
    13    5    6 1    
    14    6    7 1    
    15   22   43 1    
    16   21   42 1    
    17   14   39 1    
    18   22   21 ar   
    19   15   22 ar   
    20   21   18 ar   
    21    4    5 1    
    22   14   15 1    
    23   13   14 1    
    24    4   12 ar   
    25   13   12 ar   
    26   15   16 ar   
    27   18   19 1    
    28   17   18 ar   
    29   19   20 3    
    30    3    4 ar   
    31   23   13 ar   
    32   16   17 ar   
    33   16   40 1    
    34   17   41 1    
    35    2   23 ar   
    36    3   27 1    
    37    2    3 ar   
    38    2    1 1    
    39    1   25 1    
    40    1   26 1    
    41    8   32 1    
    42    8    7 1    
    43    8   31 1    
    44    7   29 1    
    45    7   30 1    
@<TRIPOS>SUBSTRUCTURE
     1 ****       38 TEMP              0 ****  ****    0 ROOT 
