#	Name:			GSX-2011-BMC-7093-1c
#	Creating user name:	Administrator
#	Creation time:		Sun Jul 05 16:13:49 2020

#	Modifying user name:	Administrator
#	Modification time:	Sun Jul 05 16:19:33 2020

@<TRIPOS>MOLECULE
GSX-2011-BMC-7093-1c
   43    45     1     0     0
SMALL
MULLIKEN_CHARGES
INVALID_CHARGES

@<TRIPOS>ATOM
      1 C           1.020925    4.312353    0.303611 C.3       1 <1>        -0.519100 
      2 C           0.255668    3.019416    0.283475 C.ar      1 <1>         0.078200 
      3 C          -1.109795    2.934083    0.078377 C.ar      1 <1>         0.012600 
      4 N          -1.814129    1.786603    0.063324 N.ar      1 <1>        -0.492500 
      5 C          -1.100262    0.681061    0.263935 C.ar      1 <1>         0.696300 
      6 N          -1.710594   -0.560197    0.268638 N.pl3     1 <1>        -0.768100 
      7 C          -3.038264   -0.951074    0.107201 C.ar      1 <1>         0.383700 
      8 C          -3.305472   -2.334753    0.168253 C.ar      1 <1>        -0.206600 
      9 C          -4.594099   -2.819611    0.022394 C.ar      1 <1>        -0.140900 
     10 C          -5.663670   -1.931590   -0.190552 C.ar      1 <1>         0.129900 
     11 C          -6.998022   -2.424958   -0.341488 C.1       1 <1>         0.225800 
     12 N          -8.083433   -2.828109   -0.464016 N.1       1 <1>        -0.487300 
     13 C          -5.397954   -0.553348   -0.252078 C.ar      1 <1>        -0.154000 
     14 C          -4.107616   -0.060481   -0.106881 C.ar      1 <1>        -0.160000 
     15 N           0.232799    0.613934    0.475286 N.ar      1 <1>        -0.585600 
     16 C           0.887263    1.766203    0.486988 C.ar      1 <1>         0.554300 
     17 O           2.210625    1.795308    0.707913 O.3       1 <1>        -0.521600 
     18 C           2.930280    0.564363    0.989887 C.3       1 <1>         0.141300 
     19 C           4.108929    0.954206    1.880424 C.3       1 <1>        -0.273500 
     20 C           4.998712   -0.264392    2.175937 C.3       1 <1>        -0.270100 
     21 C           5.470750   -0.942844    0.880783 C.3       1 <1>        -0.257400 
     22 C           4.281416   -1.316707   -0.017158 C.3       1 <1>        -0.269500 
     23 C           3.388777   -0.098117   -0.311311 C.3       1 <1>        -0.280600 
     24 H           1.531323    4.460708    1.262561 H         1 <1>         0.169700 
     25 H           1.795790    4.332772   -0.471900 H         1 <1>         0.169400 
     26 H           0.349493    5.160965    0.138150 H         1 <1>         0.154800 
     27 H          -1.689441    3.842226   -0.083528 H         1 <1>         0.144400 
     28 H          -1.044839   -1.304852    0.428488 H         1 <1>         0.341500 
     29 H          -2.486564   -3.031683    0.332448 H         1 <1>         0.132700 
     30 H          -4.782179   -3.887300    0.072077 H         1 <1>         0.155500 
     31 H          -6.217520    0.139419   -0.415964 H         1 <1>         0.156400 
     32 H          -3.909120    1.000409   -0.155737 H         1 <1>         0.190300 
     33 H           2.252929   -0.107672    1.526316 H         1 <1>         0.152900 
     34 H           4.694833    1.727917    1.365711 H         1 <1>         0.142400 
     35 H           3.735216    1.400539    2.809447 H         1 <1>         0.143900 
     36 H           4.434923   -0.989559    2.780855 H         1 <1>         0.133500 
     37 H           5.858028    0.044204    2.783250 H         1 <1>         0.141200 
     38 H           6.135327   -0.257507    0.334833 H         1 <1>         0.133500 
     39 H           6.064490   -1.835216    1.114650 H         1 <1>         0.136800 
     40 H           4.633592   -1.751998   -0.960165 H         1 <1>         0.140800 
     41 H           3.683068   -2.094689    0.479375 H         1 <1>         0.132800 
     42 H           2.514159   -0.389532   -0.902738 H         1 <1>         0.152400 
     43 H           3.949722    0.642328   -0.898156 H         1 <1>         0.139700 
@<TRIPOS>BOND
     1   19   35 1    
     2   20   36 1    
     3   20   37 1    
     4   19   20 1    
     5   20   21 1    
     6   19   34 1    
     7   18   19 1    
     8   18   33 1    
     9    1   24 1    
    10   17   18 1    
    11   18   23 1    
    12    9   30 1    
    13    8   29 1    
    14    8    9 ar   
    15    9   10 ar   
    16    6   28 1    
    17    7    8 ar   
    18   11   12 3    
    19   10   11 1    
    20   16   17 1    
    21   13   10 ar   
    22    6    7 1    
    23    5    6 1    
    24    7   14 ar   
    25   15    5 ar   
    26   16   15 ar   
    27    4    5 ar   
    28    2   16 ar   
    29   14   13 ar   
    30   13   31 1    
    31   14   32 1    
    32    3    4 ar   
    33   21   39 1    
    34    2    3 ar   
    35    2    1 1    
    36    3   27 1    
    37    1   26 1    
    38    1   25 1    
    39   21   38 1    
    40   21   22 1    
    41   22   41 1    
    42   22   23 1    
    43   22   40 1    
    44   23   42 1    
    45   23   43 1    
@<TRIPOS>SUBSTRUCTURE
     1 ****       28 TEMP              0 ****  ****    0 ROOT 
