#	Name:			GSX-2019-EJMC277-5-15b2
#	Creating user name:	Administrator
#	Creation time:		Sun Jul 05 16:13:58 2020

#	Modifying user name:	Administrator
#	Modification time:	Sun Jul 05 16:19:33 2020

@<TRIPOS>MOLECULE
GSX-2019-EJMC277-5-15b2
   62    64     1     0     0
SMALL
MULLIKEN_CHARGES
INVALID_CHARGES

@<TRIPOS>ATOM
      1 C           5.301551   -2.962631    1.372009 C.3       1 <1>        -0.534300 
      2 C           4.264828   -1.158707   -0.071097 C.ar      1 <1>        -0.275800 
      3 C           3.503850   -0.000286   -0.258971 C.ar      1 <1>         0.192400 
      4 C           2.910072    0.565178    0.872558 C.ar      1 <1>         0.200200 
      5 C           3.062568    0.044537    2.159847 C.ar      1 <1>         0.191700 
      6 C           3.832949   -1.115957    2.292259 C.ar      1 <1>        -0.278200 
      7 C           4.441869   -1.732045    1.193309 C.ar      1 <1>         0.209800 
      8 C           0.905522    1.787462    0.485200 C.ar      1 <1>         0.553400 
      9 C           0.245354    3.029623    0.273661 C.ar      1 <1>         0.004100 
     10 C          -1.138944    2.905865    0.079027 C.ar      1 <1>         0.013700 
     11 N          -1.809969    1.759153    0.070718 N.ar      1 <1>        -0.501900 
     12 C          -1.057885    0.655486    0.272017 C.ar      1 <1>         0.699000 
     13 N           0.262626    0.624001    0.482178 N.ar      1 <1>        -0.553200 
     14 C           0.156061   -3.654549    0.777714 C.ar      1 <1>        -0.159200 
     15 C          -0.095769   -2.295959    0.630372 C.ar      1 <1>        -0.163400 
     16 C          -1.412599   -1.851887    0.412920 C.ar      1 <1>         0.375100 
     17 C          -2.454300   -2.798568    0.347271 C.ar      1 <1>        -0.202700 
     18 C          -2.196399   -4.151512    0.494348 C.ar      1 <1>        -0.140700 
     19 C          -0.881429   -4.598636    0.712912 C.ar      1 <1>         0.133800 
     20 O           2.222836    1.786032    0.714617 O.3       1 <1>        -0.524400 
     21 N          -1.777966   -0.511211    0.250518 N.pl3     1 <1>        -0.761900 
     22 C          -0.605913   -5.994687    0.866601 C.1       1 <1>         0.229600 
     23 N          -0.382279   -7.130238    0.991613 N.1       1 <1>        -0.482200 
     24 C           0.941535    4.339598    0.215673 C.2       1 <1>         0.383100 
     25 C           3.320357    0.620485   -1.621534 C.3       1 <1>        -0.540800 
     26 C           2.416275    0.708548    3.349882 C.3       1 <1>        -0.539100 
     27 C           0.084324    5.610065    0.117891 C.3       1 <1>        -0.184400 
     28 O           2.159731    4.437022    0.201950 O.2       1 <1>        -0.462700 
     29 N           0.883629    6.779105    0.405720 N.3       1 <1>        -0.571100 
     30 C           0.378687    8.011791   -0.185046 C.3       1 <1>        -0.108700 
     31 C           1.303933    9.189914    0.124909 C.3       1 <1>        -0.260200 
     32 C           0.811828   10.518771   -0.460875 C.3       1 <1>        -0.250700 
     33 C           1.744114   11.693623   -0.147723 C.3       1 <1>        -0.440700 
     34 H           4.996231   -3.541146    2.250132 H         1 <1>         0.159200 
     35 H           6.357124   -2.693287    1.510770 H         1 <1>         0.169400 
     36 H           5.248140   -3.620326    0.497854 H         1 <1>         0.159800 
     37 H           4.736169   -1.618970   -0.937069 H         1 <1>         0.121800 
     38 H           3.964624   -1.542969    3.284285 H         1 <1>         0.122100 
     39 H          -1.744003    3.792572   -0.092665 H         1 <1>         0.165800 
     40 H           1.174769   -3.988982    0.945610 H         1 <1>         0.163200 
     41 H           0.713459   -1.582695    0.682151 H         1 <1>         0.210600 
     42 H          -3.475107   -2.462933    0.179512 H         1 <1>         0.140400 
     43 H          -3.008689   -4.869020    0.441799 H         1 <1>         0.160500 
     44 H          -2.761983   -0.334557    0.088593 H         1 <1>         0.352300 
     45 H           2.295717    0.478588   -1.989299 H         1 <1>         0.164200 
     46 H           4.000007    0.168074   -2.349276 H         1 <1>         0.157400 
     47 H           3.506178    1.699418   -1.593554 H         1 <1>         0.186500 
     48 H           2.758503    0.251154    4.282568 H         1 <1>         0.158100 
     49 H           1.323530    0.615711    3.312183 H         1 <1>         0.166900 
     50 H           2.649053    1.778375    3.384585 H         1 <1>         0.179300 
     51 H          -0.767240    5.550249    0.810316 H         1 <1>         0.156900 
     52 H          -0.354710    5.617628   -0.904360 H         1 <1>         0.135300 
     53 H           1.839527    6.589545    0.108111 H         1 <1>         0.318300 
     54 H          -0.617631    8.212180    0.235117 H         1 <1>         0.131800 
     55 H           0.236786    7.929919   -1.283177 H         1 <1>         0.105400 
     56 H           2.308491    8.970335   -0.267679 H         1 <1>         0.128400 
     57 H           1.410852    9.274414    1.214239 H         1 <1>         0.146400 
     58 H          -0.193167   10.736977   -0.072180 H         1 <1>         0.131300 
     59 H           0.701815   10.419852   -1.550174 H         1 <1>         0.130900 
     60 H           1.366160   12.628974   -0.575752 H         1 <1>         0.141900 
     61 H           2.748141   11.522259   -0.555020 H         1 <1>         0.142700 
     62 H           1.847491   11.839267    0.934487 H         1 <1>         0.143800 
@<TRIPOS>BOND
     1   25   46 1    
     2   25   45 1    
     3   25   47 1    
     4    3   25 1    
     5    2   37 1    
     6   32   59 1    
     7    3    2 ar   
     8    2    7 ar   
     9    4    3 ar   
    10   30   55 1    
    11    1   36 1    
    12   27   52 1    
    13   33   61 1    
    14   31   56 1    
    15   33   60 1    
    16   32   33 1    
    17   31   32 1    
    18   32   58 1    
    19   24   28 2    
    20   29   53 1    
    21   30   31 1    
    22   29   30 1    
    23   30   54 1    
    24   21   44 1    
    25   10   39 1    
    26   17   42 1    
    27   24    9 1    
    28   27   24 1    
    29   21   16 1    
    30   12   21 1    
    31   16   17 ar   
    32   17   18 ar   
    33   10   11 ar   
    34   11   12 ar   
    35   18   43 1    
    36    1   35 1    
    37    7    1 1    
    38    1   34 1    
    39   16   15 ar   
    40   18   19 ar   
    41    9   10 ar   
    42   15   41 1    
    43   15   14 ar   
    44   13   12 ar   
    45   14   19 ar   
    46   19   22 1    
    47   14   40 1    
    48   22   23 3    
    49    7    6 ar   
    50    9    8 ar   
    51    8   13 ar   
    52    8   20 1    
    53   20    4 1    
    54    4    5 ar   
    55   27   29 1    
    56   27   51 1    
    57   33   62 1    
    58   31   57 1    
    59    6    5 ar   
    60    6   38 1    
    61    5   26 1    
    62   26   50 1    
    63   26   49 1    
    64   26   48 1    
@<TRIPOS>SUBSTRUCTURE
     1 ****       36 TEMP              0 ****  ****    0 ROOT 
