#	Name:			GSX-2019-EJMC277-5-15a2
#	Creating user name:	Administrator
#	Creation time:		Sun Jul 05 16:13:58 2020

#	Modifying user name:	Administrator
#	Modification time:	Sun Jul 05 16:19:33 2020

@<TRIPOS>MOLECULE
GSX-2019-EJMC277-5-15a2
   60    62     1     0     0
SMALL
MULLIKEN_CHARGES
INVALID_CHARGES
Gaussian 16 #p B3LYP/6-31G* opt
@<TRIPOS>ATOM
      1 C           2.403870    8.329941   -3.618984 C.3       1 <1>        -0.443200 
      2 C           3.639613    8.286915   -2.710983 C.3       1 <1>        -0.253100 
      3 C           3.364962    7.816232   -1.273640 C.3       1 <1>        -0.263300 
      4 C           2.924481    6.354966   -1.158883 C.3       1 <1>        -0.121600 
      5 N           2.822263    5.961128    0.253113 N.3       1 <1>        -0.538500 
      6 C           2.373792    4.597676    0.449558 C.3       1 <1>        -0.224700 
      7 C           0.861375    4.393702    0.263960 C.2       1 <1>         0.387700 
      8 O           0.133566    5.369741    0.130490 O.2       1 <1>        -0.471900 
      9 C           0.251572    3.029407    0.282507 C.ar      1 <1>        -0.010900 
     10 C          -1.130758    2.927892    0.076642 C.ar      1 <1>         0.048600 
     11 N          -1.821758    1.789110    0.059732 N.ar      1 <1>        -0.484300 
     12 C          -1.096104    0.678354    0.264207 C.ar      1 <1>         0.708600 
     13 N          -1.694657   -0.553222    0.268774 N.pl3     1 <1>        -0.763200 
     14 C          -3.024297   -0.959002    0.090732 C.ar      1 <1>         0.377300 
     15 C          -4.096728   -0.082397   -0.148592 C.ar      1 <1>        -0.156400 
     16 C          -5.378901   -0.593573   -0.310839 C.ar      1 <1>        -0.152900 
     17 C          -5.625313   -1.974132   -0.239994 C.ar      1 <1>         0.134600 
     18 C          -6.951198   -2.486741   -0.409090 C.1       1 <1>         0.231400 
     19 N          -8.028595   -2.905001   -0.546473 N.1       1 <1>        -0.478400 
     20 C          -4.550142   -2.847471   -0.000335 C.ar      1 <1>        -0.139500 
     21 C          -3.269758   -2.343814    0.162193 C.ar      1 <1>        -0.205200 
     22 N           0.236099    0.629174    0.480235 N.ar      1 <1>        -0.572100 
     23 C           0.885261    1.779238    0.487175 C.ar      1 <1>         0.527000 
     24 O           2.221919    1.756456    0.708665 O.3       1 <1>        -0.567900 
     25 C           2.872587    0.532583    0.933969 C.ar      1 <1>         0.238300 
     26 C           3.034110    0.110095    2.258725 C.ar      1 <1>         0.180700 
     27 C           2.431987    0.885844    3.402890 C.3       1 <1>        -0.538700 
     28 C           3.771319   -1.054875    2.475401 C.ar      1 <1>        -0.231100 
     29 C           4.325706   -1.762166    1.398640 C.ar      1 <1>         0.169400 
     30 C           5.078544   -2.958624    1.639863 C.1       1 <1>         0.231300 
     31 N           5.686221   -3.931221    1.835064 N.1       1 <1>        -0.475300 
     32 C           4.148702   -1.299395    0.086547 C.ar      1 <1>        -0.231600 
     33 C           3.417418   -0.138203   -0.167267 C.ar      1 <1>         0.181300 
     34 C           3.218513    0.375597   -1.570764 C.3       1 <1>        -0.539000 
     35 H           1.622325    8.969401   -3.189990 H         1 <1>         0.144400 
     36 H           1.969490    7.335315   -3.769642 H         1 <1>         0.145500 
     37 H           2.656696    8.731396   -4.607045 H         1 <1>         0.142100 
     38 H           4.404946    7.639817   -3.163408 H         1 <1>         0.129400 
     39 H           4.082169    9.290796   -2.666875 H         1 <1>         0.134900 
     40 H           2.593724    8.460308   -0.824197 H         1 <1>         0.129700 
     41 H           4.269217    7.943841   -0.665254 H         1 <1>         0.144500 
     42 H           3.683420    5.711421   -1.627195 H         1 <1>         0.127200 
     43 H           1.982830    6.197323   -1.710321 H         1 <1>         0.131800 
     44 H           2.149353    6.580612    0.704388 H         1 <1>         0.304700 
     45 H           2.623240    4.261301    1.467672 H         1 <1>         0.169100 
     46 H           2.927096    3.927921   -0.217090 H         1 <1>         0.165200 
     47 H          -1.690587    3.845387   -0.083676 H         1 <1>         0.193700 
     48 H          -1.027203   -1.296358    0.435427 H         1 <1>         0.353200 
     49 H          -3.914237    0.980909   -0.204300 H         1 <1>         0.195800 
     50 H          -6.204377    0.086432   -0.495556 H         1 <1>         0.164200 
     51 H          -4.725698   -3.916569    0.057090 H         1 <1>         0.163600 
     52 H          -2.445042   -3.028273    0.347073 H         1 <1>         0.142300 
     53 H           2.753161    1.933186    3.387746 H         1 <1>         0.179700 
     54 H           2.725853    0.452391    4.362481 H         1 <1>         0.168400 
     55 H           1.336696    0.880710    3.351752 H         1 <1>         0.176100 
     56 H           3.920340   -1.417244    3.487649 H         1 <1>         0.158900 
     57 H           4.588043   -1.850238   -0.739180 H         1 <1>         0.158700 
     58 H           3.558758    1.412464   -1.668939 H         1 <1>         0.178500 
     59 H           3.772938   -0.234166   -2.289002 H         1 <1>         0.168400 
     60 H           2.159632    0.352198   -1.854289 H         1 <1>         0.176600 
@<TRIPOS>BOND
     1   27   54 1    
     2   27   53 1    
     3   27   55 1    
     4   26   27 1    
     5   28   56 1    
     6    5   44 1    
     7    6   45 1    
     8   26   28 ar   
     9   25   26 ar   
    10    7    8 2    
    11    5    6 1    
    12    4    5 1    
    13   28   29 ar   
    14    6    7 1    
    15    7    9 1    
    16    6   46 1    
    17   10   47 1    
    18    3   40 1    
    19    9   10 ar   
    20   10   11 ar   
    21    9   23 ar   
    22    3   41 1    
    23   11   12 ar   
    24   23   24 1    
    25   23   22 ar   
    26   24   25 1    
    27   15   49 1    
    28   22   12 ar   
    29   12   13 1    
    30   16   50 1    
    31   25   33 ar   
    32   15   16 ar   
    33   14   15 ar   
    34    3    4 1    
    35    2    3 1    
    36   16   17 ar   
    37   13   14 1    
    38   13   48 1    
    39   14   21 ar   
    40    4   43 1    
    41    4   42 1    
    42   17   18 1    
    43   20   17 ar   
    44   29   30 1    
    45   32   29 ar   
    46   18   19 3    
    47   21   20 ar   
    48   21   52 1    
    49   20   51 1    
    50   30   31 3    
    51    2   39 1    
    52    1   35 1    
    53   33   32 ar   
    54   33   34 1    
    55    2    1 1    
    56    2   38 1    
    57   32   57 1    
    58    1   36 1    
    59    1   37 1    
    60   34   58 1    
    61   34   60 1    
    62   34   59 1    
@<TRIPOS>SUBSTRUCTURE
     1 ****       40 TEMP              0 ****  ****    0 ROOT 
