#	Name:			GSX-2019-EJMC277-5-15b4
#	Creating user name:	Administrator
#	Creation time:		Sun Jul 05 16:13:58 2020

#	Modifying user name:	Administrator
#	Modification time:	Sun Jul 05 16:19:33 2020

@<TRIPOS>MOLECULE
GSX-2019-EJMC277-5-15b4
   55    57     1     0     0
SMALL
MULLIKEN_CHARGES
INVALID_CHARGES

@<TRIPOS>ATOM
      1 C           5.308074   -2.955637    1.384894 C.3       1 <1>        -0.534300 
      2 C           4.266886   -1.158031   -0.063551 C.ar      1 <1>        -0.276200 
      3 C           3.504465   -0.000739   -0.254184 C.ar      1 <1>         0.192900 
      4 C           2.911597    0.567193    0.876397 C.ar      1 <1>         0.200000 
      5 C           3.065788    0.050148    2.165121 C.ar      1 <1>         0.190900 
      6 C           3.837773   -1.108780    2.300273 C.ar      1 <1>        -0.277800 
      7 C           4.446139   -1.727239    1.202047 C.ar      1 <1>         0.209800 
      8 C           0.905814    1.786785    0.484085 C.ar      1 <1>         0.554600 
      9 C           0.245481    3.028493    0.272907 C.ar      1 <1>         0.002700 
     10 C          -1.139054    2.906101    0.079330 C.ar      1 <1>         0.014100 
     11 N          -1.810286    1.759669    0.071335 N.ar      1 <1>        -0.501600 
     12 C          -1.058119    0.655788    0.272212 C.ar      1 <1>         0.699400 
     13 N           0.262633    0.623771    0.481658 N.ar      1 <1>        -0.553200 
     14 C           0.157358   -3.650541    0.799517 C.ar      1 <1>        -0.159200 
     15 C          -0.095535   -2.292786    0.646488 C.ar      1 <1>        -0.163200 
     16 C          -1.411222   -1.851141    0.417681 C.ar      1 <1>         0.374900 
     17 C          -2.450841   -2.799589    0.345993 C.ar      1 <1>        -0.202800 
     18 C          -2.191932   -4.151745    0.498617 C.ar      1 <1>        -0.140700 
     19 C          -0.878130   -4.596420    0.728865 C.ar      1 <1>         0.134000 
     20 O           2.222737    1.786954    0.715954 O.3       1 <1>        -0.525100 
     21 N          -1.777631   -0.511149    0.250455 N.pl3     1 <1>        -0.761800 
     22 C          -0.601823   -5.991732    0.888382 C.1       1 <1>         0.229600 
     23 N          -0.377506   -7.126575    1.018190 N.1       1 <1>        -0.482100 
     24 C           0.941052    4.337967    0.216766 C.2       1 <1>         0.385500 
     25 C           3.318592    0.615783   -1.618252 C.3       1 <1>        -0.541100 
     26 C           2.419722    0.717260    3.353621 C.3       1 <1>        -0.538700 
     27 C           0.079548    5.607179    0.176736 C.3       1 <1>        -0.201100 
     28 O           2.158168    4.437209    0.167545 O.2       1 <1>        -0.461800 
     29 N           0.901057    6.769174    0.455841 N.3       1 <1>        -0.545500 
     30 C           0.381404    8.027835   -0.074504 C.3       1 <1>        -0.280800 
     31 C           0.188878    8.073709   -1.538491 C.1       1 <1>         0.309900 
     32 C           0.047137    8.064290   -2.738972 C.1       1 <1>        -0.476300 
     33 H           4.971744   -3.559338    2.234483 H         1 <1>         0.159500 
     34 H           6.354340   -2.681962    1.575386 H         1 <1>         0.169500 
     35 H           5.296877   -3.590842    0.492955 H         1 <1>         0.159600 
     36 H           4.737680   -1.620515   -0.928575 H         1 <1>         0.122000 
     37 H           3.970906   -1.532769    3.293420 H         1 <1>         0.122100 
     38 H          -1.743054    3.793774   -0.093259 H         1 <1>         0.166700 
     39 H           1.175235   -3.982654    0.976701 H         1 <1>         0.163200 
     40 H           0.712283   -1.578074    0.702679 H         1 <1>         0.210700 
     41 H          -3.470904   -2.466437    0.169023 H         1 <1>         0.140500 
     42 H          -3.002698   -4.870666    0.441197 H         1 <1>         0.160600 
     43 H          -2.761453   -0.335498    0.086436 H         1 <1>         0.352400 
     44 H           3.500314    1.695416   -1.593364 H         1 <1>         0.187400 
     45 H           2.294391    0.468952   -1.985341 H         1 <1>         0.164500 
     46 H           3.999714    0.163694   -2.344899 H         1 <1>         0.157500 
     47 H           1.326611    0.632805    3.311880 H         1 <1>         0.166600 
     48 H           2.660595    1.785313    3.390934 H         1 <1>         0.178700 
     49 H           2.755071    0.256192    4.287069 H         1 <1>         0.158200 
     50 H          -0.734712    5.536617    0.911086 H         1 <1>         0.158200 
     51 H          -0.397600    5.642956   -0.822946 H         1 <1>         0.158200 
     52 H           1.840185    6.582032    0.108565 H         1 <1>         0.327600 
     53 H           1.070229    8.826369    0.226713 H         1 <1>         0.180100 
     54 H          -0.574322    8.247394    0.420610 H         1 <1>         0.172200 
     55 H          -0.071237    8.074377   -3.798922 H         1 <1>         0.188700 
@<TRIPOS>BOND
     1   26   49 1    
     2   26   48 1    
     3   26   47 1    
     4    5   26 1    
     5    6   37 1    
     6   27   50 1    
     7    6    5 ar   
     8    5    4 ar   
     9   30   54 1    
    10    7    6 ar   
    11   30   53 1    
    12   29   30 1    
    13   27   29 1    
    14   29   52 1    
    15   30   31 1    
    16   24   27 1    
    17   27   51 1    
    18    1   33 1    
    19   10   38 1    
    20    9   10 ar   
    21   10   11 ar   
    22    9   24 1    
    23   24   28 2    
    24    8    9 ar   
    25   12   11 ar   
    26   20    8 1    
    27    4   20 1    
    28    8   13 ar   
    29   13   12 ar   
    30   12   21 1    
    31   21   43 1    
    32    4    3 ar   
    33   21   16 1    
    34   17   41 1    
    35   16   17 ar   
    36   16   15 ar   
    37   15   40 1    
    38   17   18 ar   
    39   15   14 ar   
    40   18   42 1    
    41   18   19 ar   
    42   14   19 ar   
    43   14   39 1    
    44   19   22 1    
    45    7    1 1    
    46    7    2 ar   
    47    1   34 1    
    48   22   23 3    
    49    1   35 1    
    50   31   32 3    
    51    3    2 ar   
    52    3   25 1    
    53    2   36 1    
    54   32   55 1    
    55   25   44 1    
    56   25   45 1    
    57   25   46 1    
@<TRIPOS>SUBSTRUCTURE
     1 ****       54 TEMP              0 ****  ****    0 ROOT 
