#	Name:			GSX-2011-BMC-7093-1d
#	Creating user name:	Administrator
#	Creation time:		Sun Jul 05 16:13:49 2020

#	Modifying user name:	Administrator
#	Modification time:	Sun Jul 05 16:19:33 2020

@<TRIPOS>MOLECULE
GSX-2011-BMC-7093-1d
   40    42     1     0     0
SMALL
MULLIKEN_CHARGES
INVALID_CHARGES

@<TRIPOS>ATOM
      1 C           1.018552    4.314732    0.302676 C.3       1 <1>        -0.519700 
      2 C           0.254553    3.021019    0.286335 C.ar      1 <1>         0.080200 
      3 C          -1.110481    2.934408    0.077647 C.ar      1 <1>         0.011900 
      4 N          -1.813908    1.786323    0.060370 N.ar      1 <1>        -0.492100 
      5 C          -1.100056    0.681308    0.264009 C.ar      1 <1>         0.695400 
      6 N          -1.708754   -0.560548    0.268720 N.pl3     1 <1>        -0.767900 
      7 C          -3.030883   -0.956518    0.078597 C.ar      1 <1>         0.383800 
      8 C          -3.294979   -2.340656    0.143842 C.ar      1 <1>        -0.206700 
      9 C          -4.577296   -2.831411   -0.034481 C.ar      1 <1>        -0.140800 
     10 C          -5.643477   -1.949084   -0.285059 C.ar      1 <1>         0.130000 
     11 C          -6.970852   -2.449052   -0.471146 C.1       1 <1>         0.225800 
     12 N          -8.050467   -2.857862   -0.622658 N.1       1 <1>        -0.487200 
     13 C          -5.381096   -0.570421   -0.349097 C.ar      1 <1>        -0.154000 
     14 C          -4.097066   -0.071462   -0.170923 C.ar      1 <1>        -0.160100 
     15 N           0.232881    0.614981    0.478233 N.ar      1 <1>        -0.584600 
     16 C           0.886634    1.767790    0.488715 C.ar      1 <1>         0.549700 
     17 O           2.210705    1.791129    0.703906 O.3       1 <1>        -0.518100 
     18 C           2.916654    0.535899    0.923556 C.3       1 <1>         0.126700 
     19 C           4.285598    0.922824    1.489333 C.3       1 <1>        -0.283800 
     20 C           5.111816    1.268863    0.240437 C.3       1 <1>        -0.271200 
     21 C           4.696826    0.179176   -0.770740 C.3       1 <1>        -0.278400 
     22 C           3.220463   -0.168105   -0.421857 C.3       1 <1>        -0.282600 
     23 H           1.796795    4.331432   -0.469567 H         1 <1>         0.168600 
     24 H           1.524029    4.470274    1.263219 H         1 <1>         0.169800 
     25 H           0.347136    5.161589    0.128822 H         1 <1>         0.155500 
     26 H          -1.689994    3.841901   -0.088312 H         1 <1>         0.144500 
     27 H          -1.042382   -1.303220    0.435232 H         1 <1>         0.342100 
     28 H          -2.478737   -3.033341    0.336446 H         1 <1>         0.133000 
     29 H          -4.762947   -3.899381    0.018476 H         1 <1>         0.155600 
     30 H          -6.198052    0.118053   -0.541575 H         1 <1>         0.156500 
     31 H          -3.901160    0.989837   -0.221348 H         1 <1>         0.190100 
     32 H           2.311366   -0.073096    1.597134 H         1 <1>         0.155200 
     33 H           4.712713    0.046251    1.994413 H         1 <1>         0.141600 
     34 H           4.211836    1.731206    2.222871 H         1 <1>         0.153300 
     35 H           6.190166    1.288678    0.429162 H         1 <1>         0.140200 
     36 H           4.820798    2.260582   -0.125400 H         1 <1>         0.150100 
     37 H           4.814277    0.504730   -1.809082 H         1 <1>         0.143200 
     38 H           5.330328   -0.706621   -0.641695 H         1 <1>         0.140000 
     39 H           3.074321   -1.248769   -0.321744 H         1 <1>         0.144200 
     40 H           2.518589    0.172493   -1.187286 H         1 <1>         0.160200 
@<TRIPOS>BOND
     1   19   34 1    
     2   19   33 1    
     3   18   32 1    
     4   18   19 1    
     5   19   20 1    
     6    1   24 1    
     7   17   18 1    
     8   18   22 1    
     9    8   28 1    
    10    6   27 1    
    11   16   17 1    
    12    9   29 1    
    13    8    9 ar   
    14    7    8 ar   
    15   16   15 ar   
    16   15    5 ar   
    17    6    7 1    
    18    5    6 1    
    19    9   10 ar   
    20    2   16 ar   
    21    7   14 ar   
    22    5    4 ar   
    23   10   11 1    
    24   10   13 ar   
    25    2    1 1    
    26    2    3 ar   
    27   20   35 1    
    28    4    3 ar   
    29   14   13 ar   
    30   14   31 1    
    31   11   12 3    
    32    1   25 1    
    33    1   23 1    
    34    3   26 1    
    35   13   30 1    
    36   20   36 1    
    37   20   21 1    
    38   22   39 1    
    39   22   21 1    
    40   22   40 1    
    41   21   38 1    
    42   21   37 1    
@<TRIPOS>SUBSTRUCTURE
     1 ****       27 TEMP              0 ****  ****    0 ROOT 
