#	Name:			GSX-2019-EJMC277-5-15b6
#	Creating user name:	Administrator
#	Creation time:		Sun Jul 05 16:13:59 2020

#	Modifying user name:	Administrator
#	Modification time:	Sun Jul 05 16:19:33 2020

@<TRIPOS>MOLECULE
GSX-2019-EJMC277-5-15b6
   57    59     1     0     0
SMALL
MULLIKEN_CHARGES
INVALID_CHARGES

@<TRIPOS>ATOM
      1 C           5.311831   -2.952895    1.386272 C.3       1 <1>        -0.534300 
      2 C           4.257197   -1.165598   -0.063973 C.ar      1 <1>        -0.275600 
      3 C           3.493726   -0.009565   -0.255841 C.ar      1 <1>         0.193100 
      4 C           2.911341    0.566791    0.876184 C.ar      1 <1>         0.200300 
      5 C           3.076512    0.058735    2.166820 C.ar      1 <1>         0.190700 
      6 C           3.849403   -1.099841    2.303099 C.ar      1 <1>        -0.278400 
      7 C           4.447650   -1.726075    1.204250 C.ar      1 <1>         0.209900 
      8 C           0.905755    1.786977    0.484708 C.ar      1 <1>         0.554100 
      9 C           0.245288    3.028877    0.273633 C.ar      1 <1>         0.005900 
     10 C          -1.139374    2.905949    0.079149 C.ar      1 <1>         0.014900 
     11 N          -1.809974    1.759482    0.070596 N.ar      1 <1>        -0.501500 
     12 C          -1.057863    0.655552    0.272271 C.ar      1 <1>         0.699500 
     13 N           0.262817    0.623695    0.482408 N.ar      1 <1>        -0.553200 
     14 C           0.149798   -3.652223    0.812284 C.ar      1 <1>        -0.159100 
     15 C          -0.100032   -2.294343    0.654970 C.ar      1 <1>        -0.163200 
     16 C          -1.414067   -1.851014    0.420709 C.ar      1 <1>         0.374900 
     17 C          -2.455189   -2.797760    0.347347 C.ar      1 <1>        -0.202700 
     18 C          -2.199227   -4.150086    0.504256 C.ar      1 <1>        -0.140700 
     19 C          -0.887045   -4.596391    0.740452 C.ar      1 <1>         0.134000 
     20 O           2.222900    1.786652    0.714833 O.3       1 <1>        -0.525200 
     21 N          -1.777975   -0.510773    0.250338 N.pl3     1 <1>        -0.761700 
     22 C          -0.613758   -5.991703    0.904353 C.1       1 <1>         0.229700 
     23 N          -0.391830   -7.126676    1.037588 N.1       1 <1>        -0.481900 
     24 C           0.938961    4.338953    0.218287 C.2       1 <1>         0.382700 
     25 C           3.296582    0.597640   -1.622475 C.3       1 <1>        -0.541100 
     26 C           2.441038    0.734209    3.356252 C.3       1 <1>        -0.538600 
     27 C           0.077957    5.608691    0.175455 C.3       1 <1>        -0.193400 
     28 O           2.158241    4.436576    0.179626 O.2       1 <1>        -0.469900 
     29 N           0.886812    6.786940    0.419816 N.3       1 <1>        -0.563500 
     30 C           0.504816    7.975189   -0.326928 C.3       1 <1>        -0.182400 
     31 C           0.747683    7.977115   -1.825099 C.2       1 <1>        -0.066200 
     32 C           1.448552    7.070015   -2.506771 C.2       1 <1>        -0.351700 
     33 H           5.027819   -3.514785    2.282169 H         1 <1>         0.159200 
     34 H           6.370194   -2.680513    1.494934 H         1 <1>         0.169500 
     35 H           5.238946   -3.627549    0.526415 H         1 <1>         0.160100 
     36 H           4.720243   -1.634026   -0.930031 H         1 <1>         0.122100 
     37 H           3.991359   -1.516936    3.297969 H         1 <1>         0.122200 
     38 H          -1.743745    3.793283   -0.092648 H         1 <1>         0.166700 
     39 H           1.166436   -3.985897    0.993870 H         1 <1>         0.163300 
     40 H           0.709022   -1.581180    0.712035 H         1 <1>         0.210500 
     41 H          -3.473834   -2.462983    0.165820 H         1 <1>         0.140600 
     42 H          -3.011081   -4.867713    0.445647 H         1 <1>         0.160700 
     43 H          -2.761538   -0.334190    0.085071 H         1 <1>         0.352600 
     44 H           3.484475    1.676513   -1.607688 H         1 <1>         0.186200 
     45 H           2.267817    0.453491   -1.977642 H         1 <1>         0.164600 
     46 H           3.967706    0.136704   -2.352897 H         1 <1>         0.157700 
     47 H           1.347661    0.647759    3.325844 H         1 <1>         0.166600 
     48 H           2.680343    1.803026    3.382439 H         1 <1>         0.178800 
     49 H           2.786213    0.281349    4.290084 H         1 <1>         0.158300 
     50 H          -0.726657    5.530101    0.922020 H         1 <1>         0.157400 
     51 H          -0.414117    5.624253   -0.814778 H         1 <1>         0.157100 
     52 H           1.865564    6.545562    0.277025 H         1 <1>         0.328800 
     53 H           1.034102    8.835083    0.110875 H         1 <1>         0.158000 
     54 H          -0.560503    8.173536   -0.138164 H         1 <1>         0.144800 
     55 H           0.313254    8.825310   -2.358175 H         1 <1>         0.122600 
     56 H           1.595296    7.156216   -3.579800 H         1 <1>         0.139400 
     57 H           1.909715    6.213907   -2.019703 H         1 <1>         0.146700 
@<TRIPOS>BOND
     1   26   49 1    
     2   26   48 1    
     3   26   47 1    
     4    5   26 1    
     5    6   37 1    
     6   27   50 1    
     7    6    5 ar   
     8    5    4 ar   
     9    7    6 ar   
    10   27   29 1    
    11   29   52 1    
    12   29   30 1    
    13   30   53 1    
    14   30   54 1    
    15    1   33 1    
    16   24   27 1    
    17   27   51 1    
    18   30   31 1    
    19    9   24 1    
    20   24   28 2    
    21   10   38 1    
    22    9   10 ar   
    23    8    9 ar   
    24   10   11 ar   
    25   20    8 1    
    26    4   20 1    
    27    8   13 ar   
    28   12   11 ar   
    29    4    3 ar   
    30   13   12 ar   
    31   12   21 1    
    32   21   43 1    
    33   21   16 1    
    34   15   40 1    
    35   16   15 ar   
    36   16   17 ar   
    37   15   14 ar   
    38    7    1 1    
    39    7    2 ar   
    40   17   41 1    
    41   17   18 ar   
    42   14   39 1    
    43   14   19 ar   
    44    1   34 1    
    45    1   35 1    
    46   18   19 ar   
    47   18   42 1    
    48   19   22 1    
    49   22   23 3    
    50   31   55 1    
    51   31   32 2    
    52    3    2 ar   
    53    3   25 1    
    54    2   36 1    
    55   32   57 1    
    56   32   56 1    
    57   25   44 1    
    58   25   45 1    
    59   25   46 1    
@<TRIPOS>SUBSTRUCTURE
     1 ****       50 TEMP              0 ****  ****    0 ROOT 
