#	Name:			LYH-2009-CMC-1537-1H
#	Creating user name:	Administrator
#	Creation time:		Sun Jul 05 16:15:04 2020

#	Modifying user name:	Administrator
#	Modification time:	Sun Jul 05 16:19:33 2020

@<TRIPOS>MOLECULE
LYH-2009-CMC-1537-1H
   46    49     1     0     0
SMALL
MULLIKEN_CHARGES
INVALID_CHARGES
Gaussian 16 #p B3LYP/6-31G* opt
@<TRIPOS>ATOM
      1 C           1.175840    4.913756    1.723585 C.3       1 <1>        -0.442000 
      2 C           1.025390    4.328479    0.307409 C.3       1 <1>        -0.331600 
      3 C           0.255548    3.031387    0.279582 C.ar      1 <1>         0.089900 
      4 C          -1.121179    2.898579    0.080877 C.ar      1 <1>         0.064700 
      5 CL         -2.102315    4.338386   -0.179556 Cl        1 <1>         0.012100 
      6 N          -1.791505    1.758447    0.068236 N.ar      1 <1>        -0.496900 
      7 C          -1.059046    0.650090    0.272303 C.ar      1 <1>         0.693500 
      8 N          -1.794734   -0.513242    0.247145 N.pl3     1 <1>        -0.771000 
      9 C          -1.440620   -1.854826    0.405870 C.ar      1 <1>         0.379100 
     10 C          -0.128114   -2.310100    0.629203 C.ar      1 <1>        -0.164500 
     11 C           0.114884   -3.670534    0.773235 C.ar      1 <1>        -0.159200 
     12 C          -0.928094   -4.608237    0.700863 C.ar      1 <1>         0.131800 
     13 C          -0.662915   -6.006080    0.853576 C.1       1 <1>         0.228000 
     14 N          -0.447597   -7.143351    0.979005 N.1       1 <1>        -0.484900 
     15 C          -2.238863   -4.150772    0.476579 C.ar      1 <1>        -0.140800 
     16 C          -2.487527   -2.796125    0.331829 C.ar      1 <1>        -0.204400 
     17 N           0.260496    0.612079    0.487347 N.ar      1 <1>        -0.549900 
     18 C           0.881556    1.784770    0.491249 C.ar      1 <1>         0.537300 
     19 O           2.220438    1.814300    0.701196 O.3       1 <1>        -0.566900 
     20 C           2.909836    0.625111    0.970789 C.ar      1 <1>         0.355000 
     21 C           2.820087    0.050416    2.259486 C.ar      1 <1>        -0.146900 
     22 C           3.565989   -1.068044    2.548279 C.ar      1 <1>        -0.208500 
     23 C           4.427292   -1.649655    1.577476 C.ar      1 <1>         0.143100 
     24 C           5.205756   -2.805932    1.850523 C.ar      1 <1>        -0.194300 
     25 C           6.031453   -3.342857    0.888412 C.ar      1 <1>        -0.133000 
     26 C           6.117284   -2.745013   -0.392776 C.ar      1 <1>        -0.134600 
     27 C           5.376967   -1.622744   -0.689519 C.ar      1 <1>        -0.188300 
     28 C           4.513850   -1.045666    0.279996 C.ar      1 <1>         0.126200 
     29 C           3.731294    0.107530    0.002445 C.ar      1 <1>        -0.232500 
     30 H           1.705716    4.216127    2.380552 H         1 <1>         0.154100 
     31 H           1.746274    5.848588    1.691764 H         1 <1>         0.151300 
     32 H           0.197968    5.127808    2.167856 H         1 <1>         0.157900 
     33 H           0.524521    5.055941   -0.337923 H         1 <1>         0.166100 
     34 H           2.019200    4.152662   -0.116691 H         1 <1>         0.164000 
     35 H          -2.775841   -0.328358    0.079477 H         1 <1>         0.352300 
     36 H           0.684344   -1.601216    0.687225 H         1 <1>         0.202500 
     37 H           1.130652   -4.012603    0.944458 H         1 <1>         0.162000 
     38 H          -3.055746   -4.862667    0.417437 H         1 <1>         0.158700 
     39 H          -3.505397   -2.454045    0.159253 H         1 <1>         0.139200 
     40 H           2.165641    0.499823    2.999005 H         1 <1>         0.145500 
     41 H           3.505848   -1.520650    3.534780 H         1 <1>         0.143200 
     42 H           5.137852   -3.261565    2.835467 H         1 <1>         0.137000 
     43 H           6.620526   -4.228619    1.108627 H         1 <1>         0.138000 
     44 H           6.772006   -3.178076   -1.143929 H         1 <1>         0.137500 
     45 H           5.441558   -1.163848   -1.672996 H         1 <1>         0.135800 
     46 H           3.782901    0.581663   -0.973210 H         1 <1>         0.144200 
@<TRIPOS>BOND
     1   27   45 1    
     2   26   44 1    
     3   29   46 1    
     4   27   26 ar   
     5   28   27 ar   
     6   26   25 ar   
     7   29   28 ar   
     8   20   29 ar   
     9    2   33 1    
    10    2   34 1    
    11   28   23 ar   
    12    4    5 1    
    13    4    6 ar   
    14    7    6 ar   
    15    3    4 ar   
    16    8   35 1    
    17   16   39 1    
    18   25   43 1    
    19   25   24 ar   
    20    7    8 1    
    21    8    9 1    
    22    3    2 1    
    23   18    3 ar   
    24   17    7 ar   
    25    2    1 1    
    26    9   16 ar   
    27   16   15 ar   
    28    9   10 ar   
    29   15   38 1    
    30   18   17 ar   
    31   19   18 1    
    32   15   12 ar   
    33   10   36 1    
    34   10   11 ar   
    35   19   20 1    
    36   12   11 ar   
    37   12   13 1    
    38   11   37 1    
    39   13   14 3    
    40   20   21 ar   
    41   23   24 ar   
    42   23   22 ar   
    43   24   42 1    
    44    1   31 1    
    45    1   32 1    
    46    1   30 1    
    47   21   22 ar   
    48   21   40 1    
    49   22   41 1    
@<TRIPOS>SUBSTRUCTURE
     1 ****       39 TEMP              0 ****  ****    0 ROOT 
