#	Name:			LYH-2009-CMC-1537-1M
#	Creating user name:	Administrator
#	Creation time:		Sun Jul 05 16:15:05 2020

#	Modifying user name:	Administrator
#	Modification time:	Sun Jul 05 16:19:33 2020

@<TRIPOS>MOLECULE
LYH-2009-CMC-1537-1M
   47    50     1     0     0
SMALL
MULLIKEN_CHARGES
INVALID_CHARGES
Gaussian 16 #p B3LYP/6-31G* opt
@<TRIPOS>ATOM
      1 C           1.675677    4.702651   -0.988661 C.3       1 <1>        -0.443200 
      2 C           1.025207    4.328095    0.355424 C.3       1 <1>        -0.334300 
      3 C           0.252465    3.033544    0.306537 C.ar      1 <1>         0.096000 
      4 C          -1.119918    2.898441    0.072185 C.ar      1 <1>         0.064700 
      5 CL         -2.094877    4.333294   -0.220242 Cl        1 <1>         0.019600 
      6 N          -1.785197    1.756497    0.051077 N.ar      1 <1>        -0.494300 
      7 C          -1.058391    0.647716    0.273836 C.ar      1 <1>         0.698300 
      8 N          -1.798750   -0.511275    0.252707 N.pl3     1 <1>        -0.772400 
      9 C          -1.457112   -1.854607    0.423982 C.ar      1 <1>         0.380800 
     10 C          -0.158174   -2.315711    0.703644 C.ar      1 <1>        -0.162100 
     11 C           0.072756   -3.677567    0.855023 C.ar      1 <1>        -0.156300 
     12 C          -0.969652   -4.610491    0.733915 C.ar      1 <1>         0.133400 
     13 C          -0.716259   -6.010385    0.888621 C.1       1 <1>         0.228500 
     14 N          -0.510521   -7.149428    1.012164 N.1       1 <1>        -0.480600 
     15 C          -2.267748   -4.146711    0.456279 C.ar      1 <1>        -0.140100 
     16 C          -2.504286   -2.790654    0.304627 C.ar      1 <1>        -0.203900 
     17 N           0.262179    0.610932    0.493263 N.ar      1 <1>        -0.551400 
     18 C           0.874321    1.786139    0.496715 C.ar      1 <1>         0.543400 
     19 O           2.224866    1.814415    0.681615 O.3       1 <1>        -0.560400 
     20 C           2.889186    0.669317    1.091336 C.ar      1 <1>         0.337500 
     21 C           3.426801   -0.189983    0.107868 C.ar      1 <1>        -0.151300 
     22 C           4.178147   -1.274977    0.484803 C.ar      1 <1>        -0.199800 
     23 C           4.426462   -1.544329    1.857745 C.ar      1 <1>         0.151100 
     24 C           5.207296   -2.656837    2.255144 C.ar      1 <1>        -0.220600 
     25 C           5.451019   -2.911348    3.593714 C.ar      1 <1>         0.141500 
     26 C           6.249195   -4.037618    3.981333 C.1       1 <1>         0.239100 
     27 N           6.898759   -4.947148    4.303577 N.1       1 <1>        -0.469700 
     28 C           4.910827   -2.050075    4.589879 C.ar      1 <1>        -0.139500 
     29 C           4.150963   -0.964776    4.230063 C.ar      1 <1>        -0.191000 
     30 C           3.885222   -0.674164    2.864516 C.ar      1 <1>         0.100100 
     31 C           3.110234    0.440694    2.433306 C.ar      1 <1>        -0.013200 
     32 BR          2.361373    1.656180    3.692004 Br        1 <1>        -0.085700 
     33 H           2.378326    3.928355   -1.314018 H         1 <1>         0.153800 
     34 H           0.919665    4.829896   -1.770761 H         1 <1>         0.158200 
     35 H           2.228723    5.643641   -0.895000 H         1 <1>         0.153600 
     36 H           1.800800    4.233724    1.122551 H         1 <1>         0.169700 
     37 H           0.354450    5.131323    0.673537 H         1 <1>         0.167700 
     38 H          -2.776075   -0.321474    0.068569 H         1 <1>         0.354400 
     39 H           0.652834   -1.609188    0.799356 H         1 <1>         0.191100 
     40 H           1.077312   -4.026348    1.072010 H         1 <1>         0.157800 
     41 H          -3.084290   -4.854832    0.360475 H         1 <1>         0.161600 
     42 H          -3.512156   -2.443697    0.089245 H         1 <1>         0.141700 
     43 H           3.233272    0.034532   -0.935546 H         1 <1>         0.162100 
     44 H           4.596365   -1.939366   -0.265804 H         1 <1>         0.157800 
     45 H           5.618446   -3.313090    1.494096 H         1 <1>         0.168000 
     46 H           5.106903   -2.261583    5.635648 H         1 <1>         0.167300 
     47 H           3.742085   -0.312752    4.992902 H         1 <1>         0.171100 
@<TRIPOS>BOND
     1   22   44 1    
     2   21   43 1    
     3    1   33 1    
     4    1   34 1    
     5   21   22 ar   
     6   22   23 ar   
     7   20   21 ar   
     8    1   35 1    
     9   24   45 1    
    10    2    1 1    
    11   23   24 ar   
    12   24   25 ar   
    13   30   23 ar   
    14   19   20 1    
    15   20   31 ar   
    16   18   19 1    
    17    3    2 1    
    18    2   36 1    
    19    2   37 1    
    20   18    3 ar   
    21   17   18 ar   
    22   11   40 1    
    23   10   39 1    
    24    4    3 ar   
    25    7   17 ar   
    26   26   27 3    
    27   25   26 1    
    28   10   11 ar   
    29   11   12 ar   
    30    9   10 ar   
    31   25   28 ar   
    32   13   14 3    
    33   12   13 1    
    34    6    4 ar   
    35    4    5 1    
    36    7    6 ar   
    37    8    7 1    
    38   31   30 ar   
    39   30   29 ar   
    40   12   15 ar   
    41   31   32 1    
    42    9    8 1    
    43    9   16 ar   
    44    8   38 1    
    45   15   16 ar   
    46   15   41 1    
    47   16   42 1    
    48   28   29 ar   
    49   28   46 1    
    50   29   47 1    
@<TRIPOS>SUBSTRUCTURE
     1 ****       14 TEMP              0 ****  ****    0 ROOT 
