#	Name:			LYH-2009-CMC-1537-1G
#	Creating user name:	Administrator
#	Creation time:		Sun Jul 05 16:15:04 2020

#	Modifying user name:	Administrator
#	Modification time:	Sun Jul 05 16:19:33 2020

@<TRIPOS>MOLECULE
LYH-2009-CMC-1537-1G
   43    46     1     0     0
SMALL
MULLIKEN_CHARGES
INVALID_CHARGES
Gaussian 16 #p B3LYP/6-31G* opt
@<TRIPOS>ATOM
      1 C           1.022818    4.329526    0.279931 C.3       1 <1>        -0.528800 
      2 C           0.260444    3.033264    0.279067 C.ar      1 <1>         0.103900 
      3 C          -1.113025    2.919799    0.080876 C.ar      1 <1>         0.069300 
      4 CL         -2.056842    4.380110   -0.178710 Cl        1 <1>         0.017400 
      5 N          -1.806953    1.788077    0.066105 N.ar      1 <1>        -0.491600 
      6 C          -1.095299    0.675815    0.265052 C.ar      1 <1>         0.701700 
      7 N          -1.708691   -0.556035    0.263774 N.pl3     1 <1>        -0.772700 
      8 C          -3.038198   -0.944302    0.082200 C.ar      1 <1>         0.381900 
      9 C          -3.302930   -2.327638    0.137267 C.ar      1 <1>        -0.205600 
     10 C          -4.588967   -2.813602   -0.028819 C.ar      1 <1>        -0.140200 
     11 C          -5.655319   -1.925670   -0.256204 C.ar      1 <1>         0.132000 
     12 C          -6.986800   -2.420848   -0.428132 C.1       1 <1>         0.228200 
     13 N          -8.069148   -2.826250   -0.567318 N.1       1 <1>        -0.483900 
     14 C          -5.391102   -0.547421   -0.311351 C.ar      1 <1>        -0.153700 
     15 C          -4.103010   -0.053242   -0.145539 C.ar      1 <1>        -0.162300 
     16 N           0.232446    0.619485    0.482117 N.ar      1 <1>        -0.559100 
     17 C           0.870833    1.774873    0.483273 C.ar      1 <1>         0.541600 
     18 O           2.211822    1.781132    0.707673 O.3       1 <1>        -0.565000 
     19 C           2.885768    0.573808    0.859119 C.ar      1 <1>         0.332400 
     20 C           3.150777    0.130918    2.172636 C.ar      1 <1>        -0.150600 
     21 C           3.895135   -1.004703    2.374250 C.ar      1 <1>        -0.204600 
     22 C           4.405640   -1.745979    1.276423 C.ar      1 <1>         0.154400 
     23 C           5.176887   -2.922754    1.471558 C.ar      1 <1>        -0.197000 
     24 C           5.669199   -3.633929    0.402023 C.ar      1 <1>        -0.129800 
     25 C           5.409164   -3.193892   -0.917152 C.ar      1 <1>        -0.133100 
     26 C           4.666368   -2.057497   -1.145874 C.ar      1 <1>        -0.187400 
     27 C           4.143268   -1.300451   -0.063933 C.ar      1 <1>         0.086100 
     28 C           3.368550   -0.115052   -0.231723 C.ar      1 <1>        -0.004400 
     29 BR          2.976848    0.552214   -1.972791 Br        1 <1>        -0.102500 
     30 H           0.719967    4.967912    1.118479 H         1 <1>         0.176800 
     31 H           2.094575    4.143110    0.359315 H         1 <1>         0.186000 
     32 H           0.835646    4.895038   -0.639136 H         1 <1>         0.180400 
     33 H          -1.044569   -1.304137    0.417208 H         1 <1>         0.351300 
     34 H          -2.485789   -3.023684    0.312165 H         1 <1>         0.137900 
     35 H          -4.776820   -3.881486    0.015999 H         1 <1>         0.158500 
     36 H          -6.208181    0.145103   -0.486860 H         1 <1>         0.161000 
     37 H          -3.911688    1.008981   -0.190665 H         1 <1>         0.198600 
     38 H           2.758231    0.711118    3.001211 H         1 <1>         0.151500 
     39 H           4.103538   -1.349566    3.383258 H         1 <1>         0.144900 
     40 H           5.370735   -3.250953    2.489739 H         1 <1>         0.138300 
     41 H           6.257216   -4.532297    0.566492 H         1 <1>         0.139200 
     42 H           5.799678   -3.758513   -1.759152 H         1 <1>         0.140600 
     43 H           4.470099   -1.725466   -2.158984 H         1 <1>         0.158600 
@<TRIPOS>BOND
     1   26   43 1    
     2   28   29 1    
     3   25   42 1    
     4   26   25 ar   
     5   27   26 ar   
     6   25   24 ar   
     7    1   32 1    
     8   12   13 3    
     9   14   36 1    
    10   11   12 1    
    11   28   27 ar   
    12   19   28 ar   
    13   14   11 ar   
    14   15   14 ar   
    15   10   11 ar   
    16   27   22 ar   
    17   15   37 1    
    18    8   15 ar   
    19    3    4 1    
    20   10   35 1    
    21    9   10 ar   
    22    8    9 ar   
    23    7    8 1    
    24    9   34 1    
    25    3    5 ar   
    26    6    5 ar   
    27    2    3 ar   
    28   24   41 1    
    29   24   23 ar   
    30    6    7 1    
    31    7   33 1    
    32   16    6 ar   
    33    2    1 1    
    34   17    2 ar   
    35    1   31 1    
    36    1   30 1    
    37   17   16 ar   
    38   18   17 1    
    39   18   19 1    
    40   19   20 ar   
    41   22   23 ar   
    42   22   21 ar   
    43   23   40 1    
    44   20   21 ar   
    45   20   38 1    
    46   21   39 1    
@<TRIPOS>SUBSTRUCTURE
     1 ****       36 TEMP              0 ****  ****    0 ROOT 
