#	Name:			LYH-2009-CMC-1537-1U
#	Creating user name:	Administrator
#	Creation time:		Sun Jul 05 16:15:05 2020

#	Modifying user name:	Administrator
#	Modification time:	Sun Jul 05 16:19:33 2020

@<TRIPOS>MOLECULE
LYH-2009-CMC-1537-1U
   41    44     1     0     0
SMALL
MULLIKEN_CHARGES
INVALID_CHARGES
Gaussian 16 #p B3LYP/6-31G* opt
@<TRIPOS>ATOM
      1 N          -8.048608   -2.861392   -0.594772 N.1       1 <1>        -0.482900 
      2 C          -6.968640   -2.451647   -0.450285 C.1       1 <1>         0.228400 
      3 C          -5.640581   -1.949225   -0.272258 C.ar      1 <1>         0.132100 
      4 C          -5.383761   -0.569723   -0.330891 C.ar      1 <1>        -0.153200 
      5 C          -4.099352   -0.068108   -0.159388 C.ar      1 <1>        -0.158800 
      6 C          -3.030916   -0.952009    0.077611 C.ar      1 <1>         0.381200 
      7 N          -1.704822   -0.554604    0.265374 N.pl3     1 <1>        -0.767200 
      8 C          -1.098366    0.681664    0.264378 C.ar      1 <1>         0.700900 
      9 N          -1.814346    1.790623    0.056091 N.ar      1 <1>        -0.486800 
     10 C          -1.116191    2.938316    0.073999 C.ar      1 <1>         0.070800 
     11 C           0.248616    3.005969    0.290831 C.ar      1 <1>        -0.216400 
     12 C           0.879452    1.767877    0.496314 C.ar      1 <1>         0.570900 
     13 O           2.222136    1.790555    0.693935 O.3       1 <1>        -0.560400 
     14 C           2.909885    0.625019    1.025070 C.ar      1 <1>         0.363100 
     15 C           2.650825   -0.033623    2.251257 C.ar      1 <1>        -0.137300 
     16 C           3.413270   -1.119644    2.605505 C.ar      1 <1>        -0.203100 
     17 C           4.459724   -1.588142    1.763043 C.ar      1 <1>         0.144700 
     18 C           5.256822   -2.704672    2.109932 C.ar      1 <1>        -0.215200 
     19 C           6.271798   -3.136356    1.270529 C.ar      1 <1>         0.132100 
     20 C           7.071479   -4.269750    1.632450 C.1       1 <1>         0.236100 
     21 N           7.723767   -5.189226    1.919959 N.1       1 <1>        -0.476400 
     22 C           6.525566   -2.456381    0.044055 C.ar      1 <1>        -0.142800 
     23 C           5.764196   -1.369846   -0.309480 C.ar      1 <1>        -0.193700 
     24 C           4.715259   -0.904136    0.529595 C.ar      1 <1>         0.140100 
     25 C           3.912967    0.213390    0.182895 C.ar      1 <1>        -0.240800 
     26 N           0.235094    0.616011    0.487014 N.ar      1 <1>        -0.562500 
     27 C          -3.288281   -2.336585    0.136266 C.ar      1 <1>        -0.205900 
     28 C          -4.570711   -2.830374   -0.035436 C.ar      1 <1>        -0.140200 
     29 H          -6.204143    0.117170   -0.513534 H         1 <1>         0.159500 
     30 H          -3.908816    0.994225   -0.206284 H         1 <1>         0.190600 
     31 H          -1.038422   -1.299144    0.426064 H         1 <1>         0.349000 
     32 H          -1.694141    3.844588   -0.094733 H         1 <1>         0.160000 
     33 H           0.803226    3.935342    0.304236 H         1 <1>         0.160800 
     34 H           1.857489    0.329589    2.894845 H         1 <1>         0.153500 
     35 H           3.225901   -1.632866    3.544882 H         1 <1>         0.149300 
     36 H           5.068500   -3.225978    3.043898 H         1 <1>         0.161700 
     37 H           7.324328   -2.808549   -0.600185 H         1 <1>         0.161300 
     38 H           5.957965   -0.851009   -1.244427 H         1 <1>         0.148400 
     39 H           4.090795    0.749676   -0.744081 H         1 <1>         0.151500 
     40 H          -2.468487   -3.027766    0.318374 H         1 <1>         0.138000 
     41 H          -4.752904   -3.899049    0.012282 H         1 <1>         0.159700 
@<TRIPOS>BOND
     1   16   35 1    
     2   15   34 1    
     3   18   36 1    
     4   15   16 ar   
     5   16   17 ar   
     6   14   15 ar   
     7   17   18 ar   
     8   18   19 ar   
     9   17   24 ar   
    10   13   14 1    
    11   14   25 ar   
    12   20   21 3    
    13   12   13 1    
    14   26   12 ar   
    15    8   26 ar   
    16   12   11 ar   
    17   19   20 1    
    18    7   31 1    
    19   27   40 1    
    20    7    8 1    
    21    6    7 1    
    22    8    9 ar   
    23   11   33 1    
    24   11   10 ar   
    25   27    6 ar   
    26   27   28 ar   
    27    6    5 ar   
    28   28   41 1    
    29    9   10 ar   
    30   10   32 1    
    31   28    3 ar   
    32    5   30 1    
    33    5    4 ar   
    34    3    4 ar   
    35    3    2 1    
    36    4   29 1    
    37    2    1 3    
    38   19   22 ar   
    39   24   25 ar   
    40   24   23 ar   
    41   25   39 1    
    42   22   23 ar   
    43   22   37 1    
    44   23   38 1    
@<TRIPOS>SUBSTRUCTURE
     1 ****       40 TEMP              0 ****  ****    0 ROOT 
