#	Name:			LYH-2009-CMC-1537-1B
#	Creating user name:	Administrator
#	Creation time:		Sun Jul 05 16:15:04 2020

#	Modifying user name:	Administrator
#	Modification time:	Sun Jul 05 16:19:33 2020

@<TRIPOS>MOLECULE
LYH-2009-CMC-1537-1B
   40    43     1     0     0
SMALL
MULLIKEN_CHARGES
INVALID_CHARGES
Gaussian 16 #p B3LYP/6-31G* opt
@<TRIPOS>ATOM
      1 N          -8.080413   -2.809945   -0.531193 N.1       1 <1>        -0.481500 
      2 C          -6.997175   -2.405818   -0.396259 C.1       1 <1>         0.229600 
      3 C          -5.664135   -1.911740   -0.230285 C.ar      1 <1>         0.133100 
      4 C          -5.396067   -0.535588   -0.309779 C.ar      1 <1>        -0.153400 
      5 C          -4.106491   -0.042600   -0.150868 C.ar      1 <1>        -0.160900 
      6 C          -3.045878   -0.932956    0.094370 C.ar      1 <1>         0.380000 
      7 N          -1.712364   -0.547148    0.268331 N.pl3     1 <1>        -0.768900 
      8 C          -1.094753    0.679438    0.263640 C.ar      1 <1>         0.703000 
      9 N          -1.809727    1.793227    0.061269 N.ar      1 <1>        -0.491000 
     10 C          -1.114000    2.924121    0.078982 C.ar      1 <1>         0.135700 
     11 CL         -2.027487    4.396901   -0.184920 Cl        1 <1>         0.021400 
     12 C           0.251557    3.008785    0.285818 C.ar      1 <1>        -0.207200 
     13 C           0.880460    1.767236    0.485688 C.ar      1 <1>         0.579300 
     14 O           2.213653    1.798476    0.706347 O.3       1 <1>        -0.561100 
     15 C           2.935298    0.605915    0.827946 C.ar      1 <1>         0.354900 
     16 C           3.131205   -0.217044   -0.305186 C.ar      1 <1>        -0.139000 
     17 C           3.925714   -1.333177   -0.196482 C.ar      1 <1>        -0.205700 
     18 C           4.555702   -1.668283    1.033716 C.ar      1 <1>         0.146000 
     19 C           5.380408   -2.816630    1.165457 C.ar      1 <1>        -0.220700 
     20 C           5.971567   -3.099216    2.373222 C.ar      1 <1>         0.079200 
     21 BR          7.080388   -4.646404    2.550635 Br        1 <1>        -0.123400 
     22 C           5.782403   -2.269985    3.502987 C.ar      1 <1>        -0.151800 
     23 C           4.987916   -1.151845    3.394567 C.ar      1 <1>        -0.189700 
     24 C           4.353416   -0.817698    2.168495 C.ar      1 <1>         0.134400 
     25 C           3.526212    0.328480    2.034033 C.ar      1 <1>        -0.235400 
     26 N           0.236749    0.612275    0.477859 N.ar      1 <1>        -0.559600 
     27 C          -3.314081   -2.313874    0.174494 C.ar      1 <1>        -0.205200 
     28 C          -4.601551   -2.799039    0.015202 C.ar      1 <1>        -0.139900 
     29 H          -6.210876    0.156150   -0.498764 H         1 <1>         0.162700 
     30 H          -3.912184    1.018148   -0.213630 H         1 <1>         0.199200 
     31 H          -1.053508   -1.296548    0.439122 H         1 <1>         0.352500 
     32 H           0.800495    3.939698    0.296081 H         1 <1>         0.178900 
     33 H           2.655695    0.045499   -1.244005 H         1 <1>         0.149200 
     34 H           4.085688   -1.973271   -1.060067 H         1 <1>         0.145600 
     35 H           5.538710   -3.464535    0.309427 H         1 <1>         0.156300 
     36 H           6.264663   -2.522776    4.440707 H         1 <1>         0.158800 
     37 H           4.837957   -0.509208    4.258248 H         1 <1>         0.145900 
     38 H           3.363636    0.989368    2.879979 H         1 <1>         0.148700 
     39 H          -2.499664   -3.009226    0.364437 H         1 <1>         0.139500 
     40 H          -4.793003   -3.865153    0.079683 H         1 <1>         0.160600 
@<TRIPOS>BOND
     1   17   34 1    
     2   16   33 1    
     3   19   35 1    
     4   16   17 ar   
     5   17   18 ar   
     6   15   16 ar   
     7   18   19 ar   
     8   19   20 ar   
     9   18   24 ar   
    10   14   15 1    
    11   15   25 ar   
    12   13   14 1    
    13   26   13 ar   
    14    8   26 ar   
    15    7   31 1    
    16   13   12 ar   
    17   27   39 1    
    18    7    8 1    
    19    6    7 1    
    20    8    9 ar   
    21   20   21 1    
    22   27    6 ar   
    23   27   28 ar   
    24   12   32 1    
    25   12   10 ar   
    26   28   40 1    
    27    6    5 ar   
    28   28    3 ar   
    29    9   10 ar   
    30   10   11 1    
    31    5   30 1    
    32    5    4 ar   
    33    3    4 ar   
    34    3    2 1    
    35    4   29 1    
    36    2    1 3    
    37   20   22 ar   
    38   24   25 ar   
    39   24   23 ar   
    40   25   38 1    
    41   22   23 ar   
    42   22   36 1    
    43   23   37 1    
@<TRIPOS>SUBSTRUCTURE
     1 ****       39 TEMP              0 ****  ****    0 ROOT 
