#	Name:			LYH-2009-CMC-1537-1C
#	Creating user name:	Administrator
#	Creation time:		Sun Jul 05 16:15:04 2020

#	Modifying user name:	Administrator
#	Modification time:	Sun Jul 05 16:19:33 2020

@<TRIPOS>MOLECULE
LYH-2009-CMC-1537-1C
   40    43     1     0     0
SMALL
MULLIKEN_CHARGES
INVALID_CHARGES
Gaussian 16 #p B3LYP/6-31G* opt
@<TRIPOS>ATOM
      1 N          -8.071775   -2.817056   -0.564814 N.1       1 <1>        -0.482500 
      2 C          -6.989510   -2.411531   -0.426100 C.1       1 <1>         0.229100 
      3 C          -5.657774   -1.916221   -0.254772 C.ar      1 <1>         0.132800 
      4 C          -4.592141   -2.804137   -0.024850 C.ar      1 <1>        -0.140000 
      5 C          -3.306021   -2.317877    0.140665 C.ar      1 <1>        -0.205100 
      6 C          -3.041645   -0.934942    0.082451 C.ar      1 <1>         0.380900 
      7 N          -1.710123   -0.547917    0.264073 N.pl3     1 <1>        -0.770100 
      8 C          -1.094064    0.679749    0.264998 C.ar      1 <1>         0.705800 
      9 N          -1.809315    1.793241    0.062167 N.ar      1 <1>        -0.491400 
     10 C          -1.114254    2.924268    0.078861 C.ar      1 <1>         0.135300 
     11 CL         -2.028934    4.396978   -0.183581 Cl        1 <1>         0.020000 
     12 C           0.251567    3.009702    0.284274 C.ar      1 <1>        -0.204000 
     13 C           0.877305    1.768520    0.485873 C.ar      1 <1>         0.589800 
     14 O           2.214402    1.794905    0.703588 O.3       1 <1>        -0.557900 
     15 C           2.903981    0.597538    0.877195 C.ar      1 <1>         0.326200 
     16 C           3.190733    0.194855    2.198882 C.ar      1 <1>        -0.151100 
     17 C           3.948405   -0.927901    2.421940 C.ar      1 <1>        -0.204000 
     18 C           4.450968   -1.694991    1.338384 C.ar      1 <1>         0.154400 
     19 C           5.235862   -2.858870    1.555620 C.ar      1 <1>        -0.196900 
     20 C           5.720587   -3.594960    0.499781 C.ar      1 <1>        -0.129700 
     21 C           5.438955   -3.194512   -0.827504 C.ar      1 <1>        -0.133100 
     22 C           4.682403   -2.071758   -1.077674 C.ar      1 <1>        -0.187400 
     23 C           4.166581   -1.289565   -0.010319 C.ar      1 <1>         0.086200 
     24 C           3.378458   -0.116474   -0.201018 C.ar      1 <1>        -0.003800 
     25 BR          2.958162    0.498100   -1.954343 Br        1 <1>        -0.100500 
     26 N           0.236056    0.613942    0.484101 N.ar      1 <1>        -0.556500 
     27 C          -4.105310   -0.044042   -0.147871 C.ar      1 <1>        -0.160900 
     28 C          -5.393654   -0.538187   -0.313061 C.ar      1 <1>        -0.153500 
     29 H          -4.780311   -3.871760    0.022500 H         1 <1>         0.159600 
     30 H          -2.489115   -3.013751    0.317629 H         1 <1>         0.139100 
     31 H          -1.048106   -1.297735    0.419482 H         1 <1>         0.352800 
     32 H           0.801636    3.939818    0.288728 H         1 <1>         0.179700 
     33 H           2.804605    0.795210    3.016092 H         1 <1>         0.152500 
     34 H           4.173890   -1.242221    3.437327 H         1 <1>         0.145300 
     35 H           5.446493   -3.156550    2.579835 H         1 <1>         0.138500 
     36 H           6.319460   -4.482954    0.681224 H         1 <1>         0.139400 
     37 H           5.823841   -3.778797   -1.658611 H         1 <1>         0.140800 
     38 H           4.469773   -1.769933   -2.096917 H         1 <1>         0.158900 
     39 H          -3.913722    1.017973   -0.195488 H         1 <1>         0.199200 
     40 H          -6.210439    0.154047   -0.490552 H         1 <1>         0.162100 
@<TRIPOS>BOND
     1   22   38 1    
     2   24   25 1    
     3   21   37 1    
     4   22   21 ar   
     5   23   22 ar   
     6   21   20 ar   
     7    2    1 3    
     8    3    2 1    
     9   28   40 1    
    10   24   23 ar   
    11   15   24 ar   
    12   28    3 ar   
    13    4    3 ar   
    14   27   28 ar   
    15   23   18 ar   
    16   27   39 1    
    17    6   27 ar   
    18    4   29 1    
    19    5    4 ar   
    20   10   11 1    
    21    6    5 ar   
    22    5   30 1    
    23    7    6 1    
    24   10    9 ar   
    25    8    9 ar   
    26   20   36 1    
    27   20   19 ar   
    28   12   10 ar   
    29    8    7 1    
    30    7   31 1    
    31   26    8 ar   
    32   12   32 1    
    33   13   12 ar   
    34   13   26 ar   
    35   14   13 1    
    36   14   15 1    
    37   15   16 ar   
    38   18   19 ar   
    39   18   17 ar   
    40   19   35 1    
    41   16   17 ar   
    42   16   33 1    
    43   17   34 1    
@<TRIPOS>SUBSTRUCTURE
     1 ****        1 TEMP              0 ****  ****    0 ROOT 
