#	Name:			LYH-2009-CMC-1537-1R
#	Creating user name:	Administrator
#	Creation time:		Sun Jul 05 16:15:05 2020

#	Modifying user name:	Administrator
#	Modification time:	Sun Jul 05 16:19:33 2020

@<TRIPOS>MOLECULE
LYH-2009-CMC-1537-1R
   43    46     1     0     0
SMALL
MULLIKEN_CHARGES
INVALID_CHARGES
Gaussian 16 #p B3LYP/6-31G* opt
@<TRIPOS>ATOM
      1 C           3.109428    0.307600   -1.581918 C.3       1 <1>        -0.539100 
      2 C           3.402757   -0.143774   -0.174540 C.ar      1 <1>         0.187300 
      3 C           4.159290   -1.265524    0.095409 C.ar      1 <1>        -0.294500 
      4 C           4.444350   -1.692845    1.419814 C.ar      1 <1>         0.164300 
      5 C           5.222465   -2.849530    1.693209 C.ar      1 <1>        -0.195800 
      6 C           5.483374   -3.233459    2.989605 C.ar      1 <1>        -0.135500 
      7 C           4.978469   -2.476025    4.074925 C.ar      1 <1>        -0.137100 
      8 C           4.222118   -1.348844    3.843951 C.ar      1 <1>        -0.190200 
      9 C           3.934742   -0.928555    2.518181 C.ar      1 <1>         0.125500 
     10 C           3.159628    0.226690    2.237010 C.ar      1 <1>        -0.230200 
     11 C           2.906229    0.587520    0.939432 C.ar      1 <1>         0.296600 
     12 O           2.218807    1.789299    0.703586 O.3       1 <1>        -0.566000 
     13 C           0.883259    1.767551    0.490517 C.ar      1 <1>         0.575100 
     14 C           0.247863    3.005837    0.287179 C.ar      1 <1>        -0.215100 
     15 C          -1.116625    2.938809    0.075738 C.ar      1 <1>         0.068500 
     16 N          -1.816183    1.790734    0.059361 N.ar      1 <1>        -0.489000 
     17 C          -1.097534    0.683346    0.263234 C.ar      1 <1>         0.697500 
     18 N          -1.704016   -0.554828    0.269380 N.pl3     1 <1>        -0.767900 
     19 C          -3.029455   -0.953247    0.090573 C.ar      1 <1>         0.382100 
     20 C          -4.097135   -0.071762   -0.160848 C.ar      1 <1>        -0.159300 
     21 C          -5.381970   -0.574055   -0.325496 C.ar      1 <1>        -0.153600 
     22 C          -5.641229   -1.952184   -0.245754 C.ar      1 <1>         0.131200 
     23 C          -6.969647   -2.455504   -0.417535 C.1       1 <1>         0.227200 
     24 N          -8.049897   -2.866390   -0.557263 N.1       1 <1>        -0.485200 
     25 C          -4.572627   -2.831025    0.005879 C.ar      1 <1>        -0.140600 
     26 C          -3.289624   -2.336652    0.170749 C.ar      1 <1>        -0.206000 
     27 N           0.236004    0.615662    0.478940 N.ar      1 <1>        -0.560400 
     28 H           3.645569   -0.311546   -2.306813 H         1 <1>         0.158500 
     29 H           2.037725    0.239092   -1.804924 H         1 <1>         0.172100 
     30 H           3.404769    1.351729   -1.736863 H         1 <1>         0.170800 
     31 H           4.558347   -1.846956   -0.733054 H         1 <1>         0.129700 
     32 H           5.609999   -3.428635    0.858315 H         1 <1>         0.131900 
     33 H           6.079588   -4.120563    3.185162 H         1 <1>         0.132800 
     34 H           5.191661   -2.788840    5.093450 H         1 <1>         0.133300 
     35 H           3.833588   -0.765204    4.675090 H         1 <1>         0.133000 
     36 H           2.767016    0.832308    3.048628 H         1 <1>         0.141100 
     37 H           0.801846    3.935661    0.301084 H         1 <1>         0.157500 
     38 H          -1.695212    3.845431   -0.090028 H         1 <1>         0.156400 
     39 H          -1.037307   -1.296258    0.443713 H         1 <1>         0.349500 
     40 H          -3.904393    0.989461   -0.222598 H         1 <1>         0.190200 
     41 H          -6.201227    0.111238   -0.519186 H         1 <1>         0.157900 
     42 H          -4.756507   -3.898527    0.070752 H         1 <1>         0.157700 
     43 H          -2.471078   -3.025859    0.365228 H         1 <1>         0.137700 
@<TRIPOS>BOND
     1    8   35 1    
     2    7   34 1    
     3   10   36 1    
     4    8    7 ar   
     5    9    8 ar   
     6    7    6 ar   
     7   10    9 ar   
     8   11   10 ar   
     9   15   38 1    
    10   14   37 1    
    11    9    4 ar   
    12   15   14 ar   
    13   16   15 ar   
    14   13   14 ar   
    15   17   16 ar   
    16   20   40 1    
    17   21   41 1    
    18   13   12 1    
    19   27   13 ar   
    20   12   11 1    
    21   20   21 ar   
    22   19   20 ar   
    23   17   27 ar   
    24   18   17 1    
    25   21   22 ar   
    26    6   33 1    
    27    6    5 ar   
    28   18   19 1    
    29   18   39 1    
    30   19   26 ar   
    31   11    2 ar   
    32   22   23 1    
    33   22   25 ar   
    34   23   24 3    
    35   26   25 ar   
    36   26   43 1    
    37   25   42 1    
    38    4    5 ar   
    39    4    3 ar   
    40    5   32 1    
    41    2    3 ar   
    42    2    1 1    
    43    3   31 1    
    44    1   30 1    
    45    1   29 1    
    46    1   28 1    
@<TRIPOS>SUBSTRUCTURE
     1 ****       38 TEMP              0 ****  ****    0 ROOT 
