#	Name:			LYH-2009-CMC-1537-1D
#	Creating user name:	Administrator
#	Creation time:		Sun Jul 05 16:15:04 2020

#	Modifying user name:	Administrator
#	Modification time:	Sun Jul 05 16:19:33 2020

@<TRIPOS>MOLECULE
LYH-2009-CMC-1537-1D
   41    44     1     0     0
SMALL
MULLIKEN_CHARGES
INVALID_CHARGES
Gaussian 16 #p B3LYP/6-31G* opt
@<TRIPOS>ATOM
      1 N          -8.083723   -2.805232   -0.524319 N.1       1 <1>        -0.480300 
      2 C          -7.000006   -2.402060   -0.390455 C.1       1 <1>         0.230300 
      3 C          -5.666435   -1.908928   -0.225782 C.ar      1 <1>         0.133600 
      4 C          -4.604882   -2.796512    0.022297 C.ar      1 <1>        -0.139700 
      5 C          -3.316846   -2.311976    0.180313 C.ar      1 <1>        -0.205200 
      6 C          -3.047873   -0.931715    0.096155 C.ar      1 <1>         0.379500 
      7 N          -1.713026   -0.546895    0.268788 N.pl3     1 <1>        -0.768700 
      8 C          -1.094970    0.678582    0.263557 C.ar      1 <1>         0.704300 
      9 N          -1.809115    1.793193    0.061995 N.ar      1 <1>        -0.489800 
     10 C          -1.114280    2.924239    0.079340 C.ar      1 <1>         0.135900 
     11 CL         -2.027430    4.396252   -0.183614 Cl        1 <1>         0.025100 
     12 C           0.252104    3.008872    0.285251 C.ar      1 <1>        -0.207500 
     13 C           0.879319    1.767522    0.483987 C.ar      1 <1>         0.579000 
     14 O           2.214122    1.798792    0.708303 O.3       1 <1>        -0.559600 
     15 C           2.943950    0.613275    0.804941 C.ar      1 <1>         0.360600 
     16 C           3.086713   -0.226893   -0.324936 C.ar      1 <1>        -0.137700 
     17 C           3.894092   -1.334865   -0.239523 C.ar      1 <1>        -0.202800 
     18 C           4.589589   -1.645149    0.962214 C.ar      1 <1>         0.145100 
     19 C           5.426291   -2.781419    1.070296 C.ar      1 <1>        -0.214900 
     20 C           6.094087   -3.056754    2.252986 C.ar      1 <1>         0.132500 
     21 C           6.937461   -4.211903    2.350700 C.1       1 <1>         0.236700 
     22 N           7.622743   -5.148255    2.436664 N.1       1 <1>        -0.475200 
     23 C           5.946034   -2.194169    3.377774 C.ar      1 <1>        -0.142400 
     24 C           5.140158   -1.085885    3.292417 C.ar      1 <1>        -0.193400 
     25 C           4.440919   -0.777721    2.093652 C.ar      1 <1>         0.139100 
     26 C           3.599505    0.359481    1.983633 C.ar      1 <1>        -0.238600 
     27 N           0.237423    0.612104    0.476716 N.ar      1 <1>        -0.561300 
     28 C          -4.107194   -0.040890   -0.151722 C.ar      1 <1>        -0.160700 
     29 C          -5.397351   -0.533347   -0.309231 C.ar      1 <1>        -0.153200 
     30 H          -4.797302   -3.862309    0.089907 H         1 <1>         0.161700 
     31 H          -2.503269   -3.007640    0.372302 H         1 <1>         0.139700 
     32 H          -1.055711   -1.297302    0.440579 H         1 <1>         0.352200 
     33 H           0.801028    3.939671    0.295356 H         1 <1>         0.180300 
     34 H           2.561764    0.016927   -1.241706 H         1 <1>         0.154100 
     35 H           4.014878   -1.987758   -1.099852 H         1 <1>         0.150700 
     36 H           5.543929   -3.441472    0.215931 H         1 <1>         0.162600 
     37 H           6.476979   -2.425872    4.295178 H         1 <1>         0.162500 
     38 H           5.027634   -0.427796    4.149826 H         1 <1>         0.149500 
     39 H           3.475247    1.033562    2.825427 H         1 <1>         0.153300 
     40 H          -3.912376    1.019436   -0.217377 H         1 <1>         0.199300 
     41 H          -6.211430    0.158490   -0.500307 H         1 <1>         0.163600 
@<TRIPOS>BOND
     1   17   35 1    
     2   16   34 1    
     3   19   36 1    
     4   16   17 ar   
     5   17   18 ar   
     6   15   16 ar   
     7   18   19 ar   
     8   19   20 ar   
     9   18   25 ar   
    10   14   15 1    
    11   15   26 ar   
    12   21   22 3    
    13   13   14 1    
    14   27   13 ar   
    15    8   27 ar   
    16   13   12 ar   
    17    7   32 1    
    18    7    8 1    
    19    6    7 1    
    20   12   33 1    
    21   12   10 ar   
    22    8    9 ar   
    23    5   31 1    
    24   20   21 1    
    25    5    6 ar   
    26    5    4 ar   
    27    6   28 ar   
    28   10    9 ar   
    29   10   11 1    
    30    4   30 1    
    31    4    3 ar   
    32   28   40 1    
    33   28   29 ar   
    34    3   29 ar   
    35    3    2 1    
    36   29   41 1    
    37    2    1 3    
    38   20   23 ar   
    39   25   26 ar   
    40   25   24 ar   
    41   26   39 1    
    42   23   24 ar   
    43   23   37 1    
    44   24   38 1    
@<TRIPOS>SUBSTRUCTURE
     1 ****       31 TEMP              0 ****  ****    0 ROOT 
