#	Name:			LYH-2009-CMC-1537-1E
#	Creating user name:	Administrator
#	Creation time:		Sun Jul 05 16:15:04 2020

#	Modifying user name:	Administrator
#	Modification time:	Sun Jul 05 16:19:33 2020

@<TRIPOS>MOLECULE
LYH-2009-CMC-1537-1E
   43    46     1     0     0
SMALL
MULLIKEN_CHARGES
INVALID_CHARGES
Gaussian 16 #p B3LYP/6-31G* opt
@<TRIPOS>ATOM
      1 C           1.074298    4.294624    0.310383 C.3       1 <1>        -0.516500 
      2 C           0.261223    3.030916    0.285181 C.ar      1 <1>         0.087900 
      3 C          -1.110089    2.923938    0.079708 C.ar      1 <1>         0.072000 
      4 CL         -2.077338    4.370458   -0.188660 Cl        1 <1>         0.011600 
      5 N          -1.802035    1.788213    0.063010 N.ar      1 <1>        -0.492700 
      6 C          -1.095663    0.674934    0.263968 C.ar      1 <1>         0.699100 
      7 N          -1.713671   -0.554973    0.268173 N.pl3     1 <1>        -0.771800 
      8 C          -3.045275   -0.938518    0.091772 C.ar      1 <1>         0.381500 
      9 C          -4.103900   -0.045263   -0.154630 C.ar      1 <1>        -0.162400 
     10 C          -5.394361   -0.534659   -0.316735 C.ar      1 <1>        -0.153800 
     11 C          -5.666742   -1.910239   -0.239504 C.ar      1 <1>         0.132000 
     12 C          -7.000424   -2.400467   -0.408861 C.1       1 <1>         0.228300 
     13 N          -8.084511   -2.801923   -0.546489 N.1       1 <1>        -0.483800 
     14 C          -4.606597   -2.800446    0.007142 C.ar      1 <1>        -0.140300 
     15 C          -3.318320   -2.319130    0.169597 C.ar      1 <1>        -0.205800 
     16 N           0.233844    0.611517    0.478237 N.ar      1 <1>        -0.560400 
     17 C           0.871203    1.767423    0.484539 C.ar      1 <1>         0.539000 
     18 O           2.206764    1.794443    0.705121 O.3       1 <1>        -0.561900 
     19 C           2.923680    0.598007    0.832850 C.ar      1 <1>         0.356200 
     20 C           3.144998   -0.210318   -0.305804 C.ar      1 <1>        -0.139800 
     21 C           3.934633   -1.329353   -0.189485 C.ar      1 <1>        -0.209400 
     22 C           4.533625   -1.683155    1.050715 C.ar      1 <1>         0.146800 
     23 C           5.354418   -2.832948    1.195689 C.ar      1 <1>        -0.193600 
     24 C           5.922350   -3.145456    2.410465 C.ar      1 <1>        -0.133900 
     25 C           5.694960   -2.318896    3.537854 C.ar      1 <1>        -0.135400 
     26 C           4.905262   -1.195906    3.430804 C.ar      1 <1>        -0.188900 
     27 C           4.303995   -0.846928    2.192071 C.ar      1 <1>         0.126700 
     28 C           3.482363    0.303516    2.049723 C.ar      1 <1>        -0.235100 
     29 H           1.549353    4.433660    1.288697 H         1 <1>         0.174500 
     30 H           0.455226    5.167274    0.100281 H         1 <1>         0.180600 
     31 H           1.881206    4.252407   -0.429785 H         1 <1>         0.174700 
     32 H          -1.054443   -1.303745    0.439038 H         1 <1>         0.351100 
     33 H          -3.906004    1.015072   -0.215564 H         1 <1>         0.199000 
     34 H          -6.206804    0.159610   -0.506524 H         1 <1>         0.161000 
     35 H          -4.801051   -3.866154    0.069980 H         1 <1>         0.158600 
     36 H          -2.506030   -3.016917    0.360308 H         1 <1>         0.137800 
     37 H           2.692420    0.065374   -1.252374 H         1 <1>         0.143900 
     38 H           4.114409   -1.959097   -1.057191 H         1 <1>         0.139800 
     39 H           5.527740   -3.464606    0.327598 H         1 <1>         0.134100 
     40 H           6.548331   -4.027935    2.508697 H         1 <1>         0.135200 
     41 H           6.148362   -2.575113    4.491423 H         1 <1>         0.135900 
     42 H           4.730467   -0.560582    4.295557 H         1 <1>         0.135100 
     43 H           3.299424    0.953915    2.899780 H         1 <1>         0.143200 
@<TRIPOS>BOND
     1   26   42 1    
     2   25   41 1    
     3   28   43 1    
     4   26   25 ar   
     5   27   26 ar   
     6   25   24 ar   
     7    1   29 1    
     8   28   27 ar   
     9   19   28 ar   
    10   27   22 ar   
    11   10   34 1    
    12    3    4 1    
    13   12   13 3    
    14   24   40 1    
    15   24   23 ar   
    16   11   12 1    
    17   10   11 ar   
    18    9   10 ar   
    19    9   33 1    
    20   14   11 ar   
    21    8    9 ar   
    22    3    5 ar   
    23    2    3 ar   
    24    6    5 ar   
    25    1   30 1    
    26    2    1 1    
    27    1   31 1    
    28   14   35 1    
    29   15   14 ar   
    30   17    2 ar   
    31    8   15 ar   
    32    7    8 1    
    33    6    7 1    
    34   16    6 ar   
    35   15   36 1    
    36    7   32 1    
    37   17   16 ar   
    38   18   17 1    
    39   18   19 1    
    40   19   20 ar   
    41   22   23 ar   
    42   22   21 ar   
    43   23   39 1    
    44   20   21 ar   
    45   20   37 1    
    46   21   38 1    
@<TRIPOS>SUBSTRUCTURE
     1 ****       29 TEMP              0 ****  ****    0 ROOT 
