#	Name:			SYL-2019-BC-102974-3-28
#	Creating user name:	Administrator
#	Creation time:		Sun Jul 05 16:18:09 2020

#	Modifying user name:	Administrator
#	Modification time:	Sun Jul 05 16:19:33 2020

@<TRIPOS>MOLECULE
SYL-2019-BC-102974-3-28
   52    56     1     0     0
SMALL
MULLIKEN_CHARGES
INVALID_CHARGES

@<TRIPOS>ATOM
      1 C           7.316975   -4.190142    1.614243 C.ar      1 <1>        -0.145400 
      2 C           6.571063   -3.071555    1.265123 C.ar      1 <1>        -0.151200 
      3 C           5.279988   -2.870361    1.785355 C.ar      1 <1>         0.110900 
      4 C           4.759396   -3.838088    2.662895 C.ar      1 <1>        -0.180800 
      5 C           5.494597   -4.963883    3.016340 C.ar      1 <1>        -0.141400 
      6 C           6.784731   -5.147690    2.494259 C.ar      1 <1>         0.133700 
      7 C           4.351921   -1.149928    0.151929 C.ar      1 <1>         0.337600 
      8 C           3.578456   -0.010596   -0.095428 C.ar      1 <1>        -0.232400 
      9 C           2.937757    0.623847    0.965057 C.ar      1 <1>         0.363500 
     10 C           3.046506    0.162863    2.268695 C.ar      1 <1>        -0.156600 
     11 C           3.818144   -0.975675    2.499658 C.ar      1 <1>        -0.198700 
     12 C           4.483551   -1.655146    1.470756 C.ar      1 <1>         0.031600 
     13 C           0.909685    1.776748    0.495840 C.ar      1 <1>         0.563600 
     14 C           0.248502    2.991161    0.289128 C.ar      1 <1>        -0.232200 
     15 C          -1.145220    2.921374    0.072306 C.ar      1 <1>         0.325400 
     16 N          -1.818173    1.755640    0.060807 N.ar      1 <1>        -0.583700 
     17 C          -1.069467    0.667824    0.269398 C.ar      1 <1>         0.688100 
     18 N           0.263705    0.624327    0.485979 N.ar      1 <1>        -0.551400 
     19 C           0.149807   -3.654544    0.790933 C.ar      1 <1>        -0.161300 
     20 C          -0.102664   -2.296482    0.643579 C.ar      1 <1>        -0.166200 
     21 C          -1.418237   -1.849337    0.415754 C.ar      1 <1>         0.382100 
     22 C          -2.456747   -2.801457    0.341531 C.ar      1 <1>        -0.205300 
     23 C          -2.198364   -4.153518    0.490331 C.ar      1 <1>        -0.140900 
     24 C          -0.884975   -4.601491    0.718507 C.ar      1 <1>         0.131400 
     25 C           7.554472   -6.301838    2.854771 C.1       1 <1>         0.236800 
     26 N           8.183616   -7.235693    3.148017 N.1       1 <1>        -0.478300 
     27 O           2.247066    1.813680    0.702917 O.3       1 <1>        -0.567100 
     28 N          -1.784524   -0.514342    0.251562 N.pl3     1 <1>        -0.774400 
     29 C          -0.609130   -5.996415    0.875645 C.1       1 <1>         0.225700 
     30 N          -0.384612   -7.131457    1.005155 N.1       1 <1>        -0.484500 
     31 S           0.848765    4.629566    0.251960 S.2       1 <1>         0.277800 
     32 C          -0.773276    5.210159   -0.055057 C.ar      1 <1>        -0.343100 
     33 C          -1.712493    4.228743   -0.124969 C.ar      1 <1>        -0.097000 
     34 O           4.994560   -1.837525   -0.831114 O.3       1 <1>        -0.509800 
     35 C           4.825729   -1.426389   -2.181808 C.3       1 <1>        -0.223100 
     36 H           8.315924   -4.328749    1.213184 H         1 <1>         0.158000 
     37 H           6.993726   -2.340027    0.586741 H         1 <1>         0.150200 
     38 H           3.755911   -3.714197    3.059583 H         1 <1>         0.147600 
     39 H           5.074338   -5.705909    3.687386 H         1 <1>         0.163400 
     40 H           3.461864    0.393394   -1.092675 H         1 <1>         0.150900 
     41 H           2.550695    0.685542    3.078910 H         1 <1>         0.148100 
     42 H           3.930146   -1.339627    3.516459 H         1 <1>         0.149800 
     43 H           1.167790   -3.989843    0.964210 H         1 <1>         0.157500 
     44 H           0.703423   -1.580566    0.703349 H         1 <1>         0.196000 
     45 H          -3.476857   -2.467948    0.165488 H         1 <1>         0.137100 
     46 H          -3.010077   -4.871464    0.431360 H         1 <1>         0.157900 
     47 H          -2.767974   -0.341611    0.085950 H         1 <1>         0.348000 
     48 H          -0.930397    6.275426   -0.166847 H         1 <1>         0.187600 
     49 H          -2.767009    4.396308   -0.306688 H         1 <1>         0.161300 
     50 H           5.394066   -2.140074   -2.779946 H         1 <1>         0.181400 
     51 H           5.221442   -0.416237   -2.347642 H         1 <1>         0.158700 
     52 H           3.770482   -1.459148   -2.480063 H         1 <1>         0.163000 
@<TRIPOS>BOND
     1   10   41 1    
     2   11   42 1    
     3    5   39 1    
     4    4   38 1    
     5   10   11 ar   
     6    9   10 ar   
     7   11   12 ar   
     8    4    5 ar   
     9    5    6 ar   
    10    3    4 ar   
    11   25   26 3    
    12    6   25 1    
    13    6    1 ar   
    14   32   48 1    
    15   32   31 ar   
    16   14   31 ar   
    17   12    3 1    
    18    3    2 ar   
    19   33   32 ar   
    20   12    7 ar   
    21   27    9 1    
    22    9    8 ar   
    23   13   27 1    
    24   13   14 ar   
    25   15   14 ar   
    26   33   49 1    
    27   15   33 ar   
    28   18   13 ar   
    29   16   15 ar   
    30   17   18 ar   
    31   17   16 ar   
    32   28   17 1    
    33   20   44 1    
    34   28   47 1    
    35   21   28 1    
    36   20   21 ar   
    37   20   19 ar   
    38   21   22 ar   
    39   19   43 1    
    40   19   24 ar   
    41   22   45 1    
    42   22   23 ar   
    43   24   23 ar   
    44   24   29 1    
    45   23   46 1    
    46    1    2 ar   
    47    1   36 1    
    48   29   30 3    
    49    2   37 1    
    50    8    7 ar   
    51    8   40 1    
    52    7   34 1    
    53   34   35 1    
    54   35   51 1    
    55   35   52 1    
    56   35   50 1    
@<TRIPOS>SUBSTRUCTURE
     1 ****       44 TEMP              0 ****  ****    0 ROOT 
