#	Name:			SYL-2019-BC-102974-3-17
#	Creating user name:	Administrator
#	Creation time:		Sun Jul 05 16:18:08 2020

#	Modifying user name:	Administrator
#	Modification time:	Sun Jul 05 16:19:33 2020

@<TRIPOS>MOLECULE
SYL-2019-BC-102974-3-17
   48    52     1     0     0
SMALL
MULLIKEN_CHARGES
INVALID_CHARGES
Gaussian 16 #p B3LYP/6-31G* opt
@<TRIPOS>ATOM
      1 N          -0.192704   -7.101290    1.030695 N.1       1 <1>        -0.485700 
      2 C          -0.442329   -5.971432    0.901565 C.1       1 <1>         0.226800 
      3 C          -0.750830   -4.583501    0.742798 C.ar      1 <1>         0.130900 
      4 C           0.261028   -3.611946    0.815157 C.ar      1 <1>        -0.153800 
      5 C          -0.023532   -2.260637    0.663573 C.ar      1 <1>        -0.162700 
      6 C          -1.349105   -1.847011    0.432158 C.ar      1 <1>         0.384200 
      7 N          -1.747346   -0.520413    0.265649 N.pl3     1 <1>        -0.773700 
      8 C          -1.055565    0.673505    0.270736 C.ar      1 <1>         0.697400 
      9 N           0.275561    0.661580    0.469347 N.ar      1 <1>        -0.532000 
     10 C           0.909418    1.819984    0.465918 C.ar      1 <1>         0.527000 
     11 O           2.242532    1.702119    0.740086 O.3       1 <1>        -0.529700 
     12 C           3.156371    2.636251    0.295667 C.ar      1 <1>         0.251700 
     13 C           4.039145    3.215202    1.204586 C.ar      1 <1>        -0.170500 
     14 C           5.041521    4.072285    0.756419 C.ar      1 <1>        -0.180000 
     15 C           5.185228    4.369628   -0.609694 C.ar      1 <1>         0.097700 
     16 C           6.248556    5.287946   -1.085763 C.ar      1 <1>         0.099700 
     17 C           7.518771    5.294257   -0.482709 C.ar      1 <1>        -0.179100 
     18 C           8.518389    6.153966   -0.921528 C.ar      1 <1>        -0.140400 
     19 C           8.268845    7.035620   -1.986281 C.ar      1 <1>         0.134800 
     20 C           9.295492    7.925179   -2.443307 C.1       1 <1>         0.238200 
     21 N          10.128342    8.648176   -2.813993 N.1       1 <1>        -0.473300 
     22 C           7.005092    7.038835   -2.599603 C.ar      1 <1>        -0.140800 
     23 C           6.013188    6.175533   -2.150615 C.ar      1 <1>        -0.177800 
     24 C           4.294989    3.775406   -1.520380 C.ar      1 <1>        -0.257500 
     25 C           3.307759    2.917425   -1.065719 C.ar      1 <1>         0.387700 
     26 F           2.470241    2.334837   -1.942435 F         1 <1>        -0.282000 
     27 C           0.227679    3.028695    0.272879 C.ar      1 <1>        -0.213000 
     28 S           0.749086    4.704576    0.277435 S.2       1 <1>         0.271000 
     29 C          -0.897858    5.226384    0.007211 C.ar      1 <1>        -0.347700 
     30 C          -1.794261    4.210795   -0.081031 C.ar      1 <1>        -0.091500 
     31 C          -1.174750    2.921734    0.076848 C.ar      1 <1>         0.317800 
     32 N          -1.825956    1.749205    0.066474 N.ar      1 <1>        -0.580500 
     33 C          -2.364697   -2.822953    0.359377 C.ar      1 <1>        -0.206000 
     34 C          -2.074298   -4.168165    0.511612 C.ar      1 <1>        -0.140400 
     35 H           1.285723   -3.923009    0.993091 H         1 <1>         0.157900 
     36 H           0.763758   -1.523435    0.721501 H         1 <1>         0.192900 
     37 H          -2.735398   -0.370951    0.104782 H         1 <1>         0.347800 
     38 H           3.922743    2.986518    2.258904 H         1 <1>         0.165300 
     39 H           5.700848    4.538713    1.481075 H         1 <1>         0.150000 
     40 H           7.734303    4.598053    0.321931 H         1 <1>         0.150800 
     41 H           9.496933    6.142286   -0.452552 H         1 <1>         0.164800 
     42 H           6.807045    7.724530   -3.416947 H         1 <1>         0.164400 
     43 H           5.032432    6.208081   -2.615339 H         1 <1>         0.150200 
     44 H           4.381507    3.941379   -2.588798 H         1 <1>         0.162800 
     45 H          -1.097558    6.287545   -0.071057 H         1 <1>         0.189400 
     46 H          -2.857575    4.335290   -0.244538 H         1 <1>         0.163300 
     47 H          -3.392234   -2.514245    0.180880 H         1 <1>         0.136300 
     48 H          -2.868152   -4.905701    0.452716 H         1 <1>         0.157300 
@<TRIPOS>BOND
     1   13   38 1    
     2   14   39 1    
     3   13   14 ar   
     4   12   13 ar   
     5   17   40 1    
     6   14   15 ar   
     7   18   41 1    
     8   11   12 1    
     9   10   11 1    
    10   17   18 ar   
    11   16   17 ar   
    12   12   25 ar   
    13   18   19 ar   
    14   27   28 ar   
    15   29   28 ar   
    16   10   27 ar   
    17    9   10 ar   
    18    4   35 1    
    19    5   36 1    
    20   31   27 ar   
    21   15   16 1    
    22   15   24 ar   
    23    8    9 ar   
    24    5    4 ar   
    25    4    3 ar   
    26   29   45 1    
    27   30   29 ar   
    28    6    5 ar   
    29   16   23 ar   
    30    2    1 3    
    31   31   30 ar   
    32   32   31 ar   
    33    8   32 ar   
    34    7    8 1    
    35    3    2 1    
    36    3   34 ar   
    37   30   46 1    
    38    6    7 1    
    39    6   33 ar   
    40    7   37 1    
    41   19   20 1    
    42   19   22 ar   
    43   34   33 ar   
    44   34   48 1    
    45   20   21 3    
    46   33   47 1    
    47   25   24 ar   
    48   25   26 1    
    49   24   44 1    
    50   23   22 ar   
    51   23   43 1    
    52   22   42 1    
@<TRIPOS>SUBSTRUCTURE
     1 ****        1 TEMP              0 ****  ****    0 ROOT 
