#	Name:			SYL-2019-jmc-11603-3-8
#	Creating user name:	Administrator
#	Creation time:		Sun Jul 05 16:18:11 2020

#	Modifying user name:	Administrator
#	Modification time:	Sun Jul 05 16:19:33 2020

@<TRIPOS>MOLECULE
SYL-2019-jmc-11603-3-8
   48    52     1     0     0
SMALL
MULLIKEN_CHARGES
INVALID_CHARGES

@<TRIPOS>ATOM
      1 C           7.216502   -4.362365    1.325799 C.ar      1 <1>        -0.143500 
      2 C           6.537432   -3.177390    1.057394 C.ar      1 <1>        -0.121200 
      3 C           5.258411   -2.918633    1.587149 C.ar      1 <1>         0.083300 
      4 C           4.697905   -3.911287    2.412840 C.ar      1 <1>        -0.171600 
      5 C           5.355355   -5.101468    2.694867 C.ar      1 <1>        -0.133900 
      6 C           6.625360   -5.333930    2.145632 C.ar      1 <1>         0.140200 
      7 C           4.193999   -1.236155    0.032478 C.ar      1 <1>        -0.163600 
      8 C           3.425699   -0.094702   -0.183109 C.ar      1 <1>        -0.152500 
      9 C           2.943579    0.617270    0.911933 C.ar      1 <1>         0.361100 
     10 C           3.219304    0.213117    2.213574 C.ar      1 <1>        -0.152000 
     11 C           3.985430   -0.933200    2.419003 C.ar      1 <1>        -0.178500 
     12 C           4.485673   -1.671910    1.335356 C.ar      1 <1>         0.071100 
     13 C           0.909885    1.776981    0.492191 C.ar      1 <1>         0.564000 
     14 C           0.248848    2.991491    0.287589 C.ar      1 <1>        -0.231300 
     15 C          -1.145461    2.921571    0.073770 C.ar      1 <1>         0.325400 
     16 N          -1.818220    1.755569    0.062097 N.ar      1 <1>        -0.583000 
     17 C          -1.069455    0.667820    0.267876 C.ar      1 <1>         0.688800 
     18 N           0.264233    0.624466    0.483037 N.ar      1 <1>        -0.553300 
     19 C           0.162955   -3.655030    0.734310 C.ar      1 <1>        -0.160600 
     20 C          -0.093042   -2.297720    0.589735 C.ar      1 <1>        -0.164000 
     21 C          -1.415860   -1.849281    0.412387 C.ar      1 <1>         0.382300 
     22 C          -2.457464   -2.800503    0.382677 C.ar      1 <1>        -0.204600 
     23 C          -2.195403   -4.152277    0.528599 C.ar      1 <1>        -0.141000 
     24 C          -0.874804   -4.601067    0.708810 C.ar      1 <1>         0.132100 
     25 C           7.326723   -6.553522    2.422495 C.1       1 <1>         0.243900 
     26 N           7.896462   -7.541434    2.650575 N.1       1 <1>        -0.468300 
     27 O           2.246420    1.813224    0.707580 O.3       1 <1>        -0.564000 
     28 N          -1.784674   -0.514711    0.253795 N.pl3     1 <1>        -0.774500 
     29 C          -0.592187   -5.994425    0.866364 C.1       1 <1>         0.224600 
     30 N          -0.357434   -7.127187    0.998522 N.1       1 <1>        -0.484900 
     31 S           0.848773    4.629807    0.250048 S.2       1 <1>         0.280300 
     32 C          -0.773867    5.210310   -0.052350 C.ar      1 <1>        -0.342900 
     33 C          -1.713238    4.228950   -0.121149 C.ar      1 <1>        -0.096900 
     34 CL          7.371991   -1.988311    0.067517 Cl        1 <1>         0.010600 
     35 H           8.203466   -4.526629    0.909370 H         1 <1>         0.184300 
     36 H           3.708573   -3.738672    2.825749 H         1 <1>         0.160900 
     37 H           4.892237   -5.851717    3.326603 H         1 <1>         0.173200 
     38 H           4.560508   -1.798516   -0.819598 H         1 <1>         0.159500 
     39 H           3.197775    0.243023   -1.188770 H         1 <1>         0.154700 
     40 H           2.842822    0.794098    3.049094 H         1 <1>         0.153900 
     41 H           4.213431   -1.248186    3.433153 H         1 <1>         0.150400 
     42 H           1.186807   -3.991276    0.866451 H         1 <1>         0.152100 
     43 H           0.715841   -1.583079    0.613437 H         1 <1>         0.195100 
     44 H          -3.483259   -2.466500    0.244848 H         1 <1>         0.137900 
     45 H          -3.009873   -4.869098    0.505126 H         1 <1>         0.158500 
     46 H          -2.770269   -0.341748    0.100964 H         1 <1>         0.348300 
     47 H          -0.931233    6.275595   -0.163472 H         1 <1>         0.188100 
     48 H          -2.768123    4.396572   -0.300960 H         1 <1>         0.161600 
@<TRIPOS>BOND
     1    8   39 1    
     2    7   38 1    
     3    2   34 1    
     4    7    8 ar   
     5    8    9 ar   
     6   12    7 ar   
     7    1   35 1    
     8    2    1 ar   
     9    3    2 ar   
    10    1    6 ar   
    11   29   30 3    
    12   23   45 1    
    13   24   29 1    
    14   23   24 ar   
    15   22   23 ar   
    16   19   24 ar   
    17   22   44 1    
    18   21   22 ar   
    19   19   42 1    
    20   20   19 ar   
    21   28   46 1    
    22   21   20 ar   
    23   20   43 1    
    24   28   21 1    
    25   17   28 1    
    26   17   16 ar   
    27   15   16 ar   
    28   18   17 ar   
    29   33   48 1    
    30   15   33 ar   
    31   14   15 ar   
    32   13   18 ar   
    33   32   33 ar   
    34   13   14 ar   
    35   14   31 ar   
    36   27   13 1    
    37   32   47 1    
    38   31   32 ar   
    39    9   27 1    
    40    9   10 ar   
    41   12    3 1    
    42   12   11 ar   
    43    3    4 ar   
    44    6   25 1    
    45    6    5 ar   
    46   25   26 3    
    47    4    5 ar   
    48    4   36 1    
    49    5   37 1    
    50   11   10 ar   
    51   11   41 1    
    52   10   40 1    
@<TRIPOS>SUBSTRUCTURE
     1 ****       39 TEMP              0 ****  ****    0 ROOT 
