#	Name:			SYL-2019-jmc-11603-3-11
#	Creating user name:	Administrator
#	Creation time:		Sun Jul 05 16:18:10 2020

#	Modifying user name:	Administrator
#	Modification time:	Sun Jul 05 16:19:33 2020

@<TRIPOS>MOLECULE
SYL-2019-jmc-11603-3-11
   51    55     1     0     0
SMALL
MULLIKEN_CHARGES
INVALID_CHARGES

@<TRIPOS>ATOM
      1 C           5.913919   -5.186922    0.802546 C.ar      1 <1>         0.179700 
      2 C           5.138569   -4.034874    0.667911 C.ar      1 <1>        -0.256900 
      3 C           5.445849   -2.835142    1.331991 C.ar      1 <1>         0.117200 
      4 C           6.579277   -2.803559    2.161066 C.ar      1 <1>        -0.187100 
      5 C           7.372037   -3.933197    2.314806 C.ar      1 <1>        -0.139600 
      6 C           7.049224   -5.122566    1.642462 C.ar      1 <1>         0.086600 
      7 C           4.023110   -1.316536   -0.082790 C.ar      1 <1>        -0.187600 
      8 C           3.221813   -0.189778   -0.246324 C.ar      1 <1>        -0.146400 
      9 C           2.974004    0.630977    0.851671 C.ar      1 <1>         0.357300 
     10 C           3.525866    0.350247    2.097216 C.ar      1 <1>        -0.159400 
     11 C           4.331264   -0.776866    2.246889 C.ar      1 <1>        -0.186600 
     12 C           4.591821   -1.633167    1.163932 C.ar      1 <1>         0.090800 
     13 C           0.910836    1.775434    0.490213 C.ar      1 <1>         0.565900 
     14 C           0.249507    2.990121    0.286324 C.ar      1 <1>        -0.233500 
     15 C          -1.145114    2.921323    0.074156 C.ar      1 <1>         0.325900 
     16 N          -1.818345    1.755766    0.062974 N.ar      1 <1>        -0.583600 
     17 C          -1.069963    0.667722    0.270194 C.ar      1 <1>         0.689200 
     18 N           0.263606    0.623718    0.484862 N.ar      1 <1>        -0.553000 
     19 C           0.141124   -3.648918    0.841363 C.ar      1 <1>        -0.160900 
     20 C          -0.114982   -2.290585    0.706073 C.ar      1 <1>        -0.165100 
     21 C          -1.418465   -1.849579    0.407954 C.ar      1 <1>         0.382200 
     22 C          -2.442647   -2.808434    0.257574 C.ar      1 <1>        -0.204800 
     23 C          -2.180387   -4.161152    0.392942 C.ar      1 <1>        -0.141000 
     24 C          -0.877800   -4.603091    0.686217 C.ar      1 <1>         0.131700 
     25 C           7.883756   -6.275175    1.813696 C.1       1 <1>         0.228200 
     26 N           8.560982   -7.212156    1.948865 N.1       1 <1>        -0.483100 
     27 O           2.246718    1.816578    0.708261 O.3       1 <1>        -0.562500 
     28 N          -1.785671   -0.514251    0.250953 N.pl3     1 <1>        -0.774600 
     29 C          -0.593391   -5.998633    0.820493 C.1       1 <1>         0.224900 
     30 N          -0.356446   -7.133605    0.926306 N.1       1 <1>        -0.485700 
     31 S           0.850613    4.628035    0.246740 S.2       1 <1>         0.279300 
     32 C          -0.771924    5.209689   -0.054189 C.ar      1 <1>        -0.343000 
     33 C          -1.712147    4.228915   -0.121387 C.ar      1 <1>        -0.096900 
     34 C           5.546342   -6.463371    0.088504 C.3       1 <1>        -0.535900 
     35 H           4.249965   -4.081406    0.044056 H         1 <1>         0.140800 
     36 H           6.856238   -1.882615    2.664567 H         1 <1>         0.144500 
     37 H           8.252934   -3.903250    2.948109 H         1 <1>         0.160500 
     38 H           4.235825   -1.942531   -0.944168 H         1 <1>         0.148300 
     39 H           2.798140    0.056847   -1.214089 H         1 <1>         0.152900 
     40 H           3.317490    1.007431    2.935177 H         1 <1>         0.152700 
     41 H           4.739560   -1.009225    3.225786 H         1 <1>         0.147700 
     42 H           1.148976   -3.978466    1.074001 H         1 <1>         0.155200 
     43 H           0.679598   -1.569894    0.827591 H         1 <1>         0.196900 
     44 H          -3.453799   -2.479858    0.028848 H         1 <1>         0.137600 
     45 H          -2.980279   -4.884411    0.271367 H         1 <1>         0.158100 
     46 H          -2.766334   -0.342214    0.068850 H         1 <1>         0.348200 
     47 H          -0.928741    6.275044   -0.165555 H         1 <1>         0.187900 
     48 H          -2.767171    4.397135   -0.299849 H         1 <1>         0.161500 
     49 H           6.365291   -6.811329   -0.551761 H         1 <1>         0.182100 
     50 H           4.659136   -6.323380   -0.535015 H         1 <1>         0.164800 
     51 H           5.337031   -7.270673    0.800173 H         1 <1>         0.188300 
@<TRIPOS>BOND
     1   11   41 1    
     2   10   40 1    
     3    5   37 1    
     4    4   36 1    
     5   11   10 ar   
     6   12   11 ar   
     7   10    9 ar   
     8    5    4 ar   
     9    6    5 ar   
    10    3    4 ar   
    11   19   42 1    
    12   29   30 3    
    13   24   29 1    
    14   19   24 ar   
    15   20   19 ar   
    16   20   43 1    
    17   23   24 ar   
    18   21   20 ar   
    19   23   45 1    
    20   22   23 ar   
    21   21   22 ar   
    22   28   21 1    
    23   25   26 3    
    24   22   44 1    
    25    6   25 1    
    26    1    6 ar   
    27   28   46 1    
    28   17   28 1    
    29    3   12 1    
    30    2    3 ar   
    31   12    7 ar   
    32   18   17 ar   
    33   13   18 ar   
    34    9   27 1    
    35    9    8 ar   
    36   27   13 1    
    37   17   16 ar   
    38   13   14 ar   
    39   15   16 ar   
    40   14   15 ar   
    41   14   31 ar   
    42   15   33 ar   
    43   31   32 ar   
    44   33   48 1    
    45   32   33 ar   
    46   32   47 1    
    47   34   51 1    
    48    1    2 ar   
    49    2   35 1    
    50    1   34 1    
    51    7    8 ar   
    52    7   38 1    
    53    8   39 1    
    54   34   50 1    
    55   34   49 1    
@<TRIPOS>SUBSTRUCTURE
     1 ****       26 TEMP              0 ****  ****    0 ROOT 
