#	Name:			SYL-2019-jmc-11603-3-13
#	Creating user name:	Administrator
#	Creation time:		Sun Jul 05 16:18:10 2020

#	Modifying user name:	Administrator
#	Modification time:	Sun Jul 05 16:19:33 2020

@<TRIPOS>MOLECULE
SYL-2019-jmc-11603-3-13
   48    52     1     0     0
SMALL
MULLIKEN_CHARGES
INVALID_CHARGES

@<TRIPOS>ATOM
      1 C           7.649315   -3.681621    2.346687 C.ar      1 <1>         0.363200 
      2 C           6.878340   -2.604096    1.943978 C.ar      1 <1>        -0.242500 
      3 C           5.487620   -2.631079    2.138877 C.ar      1 <1>         0.116600 
      4 C           4.913211   -3.770941    2.733473 C.ar      1 <1>        -0.180300 
      5 C           5.697791   -4.845573    3.130625 C.ar      1 <1>        -0.141100 
      6 C           7.090706   -4.819097    2.945443 C.ar      1 <1>         0.063600 
      7 C           4.844540   -0.727297    0.594594 C.ar      1 <1>         0.334700 
      8 C           4.036383    0.338445    0.221668 C.ar      1 <1>        -0.240100 
      9 C           2.968652    0.680525    1.044364 C.ar      1 <1>         0.366700 
     10 C           2.714485   -0.023532    2.221266 C.ar      1 <1>        -0.140600 
     11 C           3.540056   -1.092171    2.555960 C.ar      1 <1>        -0.195600 
     12 C           4.631513   -1.481537    1.757110 C.ar      1 <1>         0.015700 
     13 C           0.907406    1.775212    0.500760 C.ar      1 <1>         0.566300 
     14 C           0.249608    2.989922    0.293949 C.ar      1 <1>        -0.234200 
     15 C          -1.144023    2.920803    0.070974 C.ar      1 <1>         0.326600 
     16 N          -1.816194    1.755469    0.057830 N.ar      1 <1>        -0.581700 
     17 C          -1.069924    0.666064    0.267251 C.ar      1 <1>         0.689700 
     18 N           0.263835    0.622039    0.486564 N.ar      1 <1>        -0.553700 
     19 C           0.146990   -3.667185    0.693521 C.ar      1 <1>        -0.159400 
     20 C          -0.102274   -2.309034    0.542865 C.ar      1 <1>        -0.164300 
     21 C          -1.426597   -1.849721    0.414734 C.ar      1 <1>         0.382500 
     22 C          -2.477684   -2.790410    0.437824 C.ar      1 <1>        -0.204300 
     23 C          -2.222588   -4.142928    0.589207 C.ar      1 <1>        -0.140500 
     24 C          -0.900197   -4.602538    0.722253 C.ar      1 <1>         0.132300 
     25 C           7.920329   -5.910840    3.348626 C.1       1 <1>         0.261400 
     26 N           8.581869   -6.806274    3.684898 N.1       1 <1>        -0.469000 
     27 O           2.249521    1.820062    0.697433 O.3       1 <1>        -0.560800 
     28 N          -1.788654   -0.513161    0.253175 N.pl3     1 <1>        -0.774400 
     29 C          -0.625587   -5.996792    0.887107 C.1       1 <1>         0.225600 
     30 N          -0.398729   -7.130190    1.025855 N.1       1 <1>        -0.483200 
     31 S           0.850834    4.627769    0.259333 S.2       1 <1>         0.282800 
     32 C          -0.769783    5.208599   -0.053973 C.ar      1 <1>        -0.342400 
     33 C          -1.709818    4.228252   -0.127999 C.ar      1 <1>        -0.096200 
     34 F           8.977262   -3.635270    2.165338 F         1 <1>        -0.267700 
     35 F           5.867631   -1.043319   -0.226764 F         1 <1>        -0.285300 
     36 H           7.372391   -1.753815    1.492042 H         1 <1>         0.168900 
     37 H           3.837453   -3.824872    2.864485 H         1 <1>         0.152300 
     38 H           5.242968   -5.722004    3.580124 H         1 <1>         0.173600 
     39 H           4.239380    0.885056   -0.691810 H         1 <1>         0.170500 
     40 H           1.890949    0.263594    2.864163 H         1 <1>         0.159100 
     41 H           3.356453   -1.626332    3.482846 H         1 <1>         0.157800 
     42 H           1.171852   -4.012670    0.787317 H         1 <1>         0.154500 
     43 H           0.713912   -1.602551    0.523558 H         1 <1>         0.191400 
     44 H          -3.505037   -2.447640    0.338804 H         1 <1>         0.139000 
     45 H          -3.043951   -4.851860    0.607370 H         1 <1>         0.159800 
     46 H          -2.774363   -0.335701    0.106483 H         1 <1>         0.349500 
     47 H          -0.925642    6.273979   -0.166757 H         1 <1>         0.190000 
     48 H          -2.763242    4.396605   -0.314718 H         1 <1>         0.163400 
@<TRIPOS>BOND
     1   11   41 1    
     2   10   40 1    
     3    5   38 1    
     4   10   11 ar   
     5   11   12 ar   
     6    9   10 ar   
     7    4   37 1    
     8    4    5 ar   
     9    5    6 ar   
    10    3    4 ar   
    11   25   26 3    
    12    6   25 1    
    13    6    1 ar   
    14   32   47 1    
    15   33   32 ar   
    16   31   32 ar   
    17   33   48 1    
    18   15   33 ar   
    19   12    3 1    
    20    3    2 ar   
    21   14   31 ar   
    22   12    7 ar   
    23   15   14 ar   
    24   16   15 ar   
    25   13   14 ar   
    26   22   44 1    
    27   17   16 ar   
    28   27    9 1    
    29    9    8 ar   
    30   28   46 1    
    31   13   27 1    
    32   18   13 ar   
    33   17   18 ar   
    34   28   17 1    
    35   22   23 ar   
    36   21   22 ar   
    37   28   21 1    
    38   23   45 1    
    39   23   24 ar   
    40   21   20 ar   
    41    1    2 ar   
    42    1   34 1    
    43    2   36 1    
    44   24   29 1    
    45   24   19 ar   
    46   20   43 1    
    47   20   19 ar   
    48   29   30 3    
    49   19   42 1    
    50    7    8 ar   
    51    7   35 1    
    52    8   39 1    
@<TRIPOS>SUBSTRUCTURE
     1 ****       47 TEMP              0 ****  ****    0 ROOT 
