#	Name:			SYL-2019-jmc-11603-3-10
#	Creating user name:	Administrator
#	Creation time:		Sun Jul 05 16:18:10 2020

#	Modifying user name:	Administrator
#	Modification time:	Sun Jul 05 16:19:33 2020

@<TRIPOS>MOLECULE
SYL-2019-jmc-11603-3-10
   51    55     1     0     0
SMALL
MULLIKEN_CHARGES
INVALID_CHARGES

@<TRIPOS>ATOM
      1 C           7.243896   -4.294110    1.455665 C.ar      1 <1>        -0.206400 
      2 C           6.584506   -3.099613    1.155013 C.ar      1 <1>         0.145500 
      3 C           5.267546   -2.913160    1.639528 C.ar      1 <1>         0.029600 
      4 C           4.671897   -3.924088    2.413646 C.ar      1 <1>        -0.176700 
      5 C           5.332662   -5.111178    2.702923 C.ar      1 <1>        -0.144100 
      6 C           6.633926   -5.302111    2.216608 C.ar      1 <1>         0.147600 
      7 C           4.250543   -1.207098    0.073878 C.ar      1 <1>        -0.177400 
      8 C           3.484120   -0.066542   -0.158325 C.ar      1 <1>        -0.151600 
      9 C           2.942222    0.618445    0.925094 C.ar      1 <1>         0.358000 
     10 C           3.156711    0.187644    2.230203 C.ar      1 <1>        -0.150500 
     11 C           3.922045   -0.956421    2.449453 C.ar      1 <1>        -0.180500 
     12 C           4.484051   -1.671779    1.378797 C.ar      1 <1>         0.065400 
     13 C           0.909850    1.776787    0.493381 C.ar      1 <1>         0.564100 
     14 C           0.248535    2.991392    0.288301 C.ar      1 <1>        -0.231600 
     15 C          -1.145376    2.921452    0.073206 C.ar      1 <1>         0.325500 
     16 N          -1.818148    1.755582    0.061605 N.ar      1 <1>        -0.583500 
     17 C          -1.069361    0.667624    0.268308 C.ar      1 <1>         0.688800 
     18 N           0.264250    0.624269    0.484141 N.ar      1 <1>        -0.552600 
     19 C           0.155707   -3.656902    0.750852 C.ar      1 <1>        -0.161300 
     20 C          -0.097832   -2.298965    0.606164 C.ar      1 <1>        -0.164800 
     21 C          -1.418035   -1.849448    0.412972 C.ar      1 <1>         0.382400 
     22 C          -2.460020   -2.799702    0.369138 C.ar      1 <1>        -0.205000 
     23 C          -2.200667   -4.151882    0.515292 C.ar      1 <1>        -0.140900 
     24 C          -0.882539   -4.601975    0.710199 C.ar      1 <1>         0.131900 
     25 C           7.347219   -6.512616    2.503223 C.1       1 <1>         0.236500 
     26 N           7.930228   -7.492104    2.736112 N.1       1 <1>        -0.477000 
     27 O           2.246690    1.813559    0.705919 O.3       1 <1>        -0.564800 
     28 N          -1.784866   -0.514254    0.253075 N.pl3     1 <1>        -0.774500 
     29 C          -0.604354   -5.996465    0.866183 C.1       1 <1>         0.225000 
     30 N          -0.375793   -7.130649    0.996160 N.1       1 <1>        -0.484700 
     31 S           0.848495    4.629759    0.250430 S.2       1 <1>         0.278400 
     32 C          -0.773934    5.210302   -0.054121 C.ar      1 <1>        -0.343100 
     33 C          -1.713156    4.228710   -0.122916 C.ar      1 <1>        -0.096900 
     34 C           7.319015   -2.045728    0.355098 C.3       1 <1>        -0.535900 
     35 H           8.259647   -4.445647    1.102292 H         1 <1>         0.153800 
     36 H           3.660392   -3.775574    2.780999 H         1 <1>         0.150800 
     37 H           4.851986   -5.884586    3.292730 H         1 <1>         0.165400 
     38 H           4.654012   -1.754584   -0.772145 H         1 <1>         0.148200 
     39 H           3.301184    0.289613   -1.166958 H         1 <1>         0.152100 
     40 H           2.733565    0.747196    3.058202 H         1 <1>         0.152500 
     41 H           4.100988   -1.291960    3.466987 H         1 <1>         0.150000 
     42 H           1.177522   -3.994125    0.895494 H         1 <1>         0.155300 
     43 H           0.710943   -1.584601    0.641694 H         1 <1>         0.195500 
     44 H          -3.483821   -2.464549    0.219689 H         1 <1>         0.137400 
     45 H          -3.015054   -4.868175    0.480444 H         1 <1>         0.158100 
     46 H          -2.769588   -0.340746    0.095815 H         1 <1>         0.348100 
     47 H          -0.931298    6.275496   -0.165841 H         1 <1>         0.187700 
     48 H          -2.767846    4.396129   -0.303719 H         1 <1>         0.161400 
     49 H           7.084237   -1.035223    0.701790 H         1 <1>         0.174200 
     50 H           7.063543   -2.088555   -0.711082 H         1 <1>         0.169200 
     51 H           8.400671   -2.191789    0.432761 H         1 <1>         0.165200 
@<TRIPOS>BOND
     1   11   41 1    
     2   10   40 1    
     3    5   37 1    
     4    4   36 1    
     5   10   11 ar   
     6    9   10 ar   
     7   11   12 ar   
     8    4    5 ar   
     9    5    6 ar   
    10    3    4 ar   
    11   25   26 3    
    12    6   25 1    
    13    6    1 ar   
    14   32   31 ar   
    15   14   31 ar   
    16   32   47 1    
    17   12    3 1    
    18    3    2 ar   
    19   33   32 ar   
    20   27    9 1    
    21   13   27 1    
    22   12    7 ar   
    23    9    8 ar   
    24   13   14 ar   
    25   15   14 ar   
    26   18   13 ar   
    27   15   33 ar   
    28   33   48 1    
    29   16   15 ar   
    30   17   18 ar   
    31   17   16 ar   
    32   28   17 1    
    33   28   46 1    
    34   21   28 1    
    35   22   44 1    
    36   21   22 ar   
    37   21   20 ar   
    38   22   23 ar   
    39   20   43 1    
    40   20   19 ar   
    41   23   45 1    
    42   23   24 ar   
    43   19   24 ar   
    44   19   42 1    
    45   24   29 1    
    46   29   30 3    
    47    1    2 ar   
    48    1   35 1    
    49    2   34 1    
    50   34   49 1    
    51    7    8 ar   
    52    7   38 1    
    53    8   39 1    
    54   34   51 1    
    55   34   50 1    
@<TRIPOS>SUBSTRUCTURE
     1 ****       31 TEMP              0 ****  ****    0 ROOT 
