#	Name:			SYL-2019-BC-102974-3-14
#	Creating user name:	Administrator
#	Creation time:		Sun Jul 05 16:18:08 2020

#	Modifying user name:	Administrator
#	Modification time:	Sun Jul 05 16:19:33 2020

@<TRIPOS>MOLECULE
SYL-2019-BC-102974-3-14
   48    52     1     0     0
SMALL
MULLIKEN_CHARGES
INVALID_CHARGES

@<TRIPOS>ATOM
      1 C           7.515270   -3.929649    1.787259 C.ar      1 <1>        -0.140300 
      2 C           6.722840   -2.826806    1.493386 C.ar      1 <1>        -0.179300 
      3 C           5.382426   -2.760141    1.913764 C.ar      1 <1>         0.101500 
      4 C           4.861244   -3.843826    2.642996 C.ar      1 <1>        -0.183400 
      5 C           5.643500   -4.952360    2.944224 C.ar      1 <1>        -0.139600 
      6 C           6.980865   -5.003994    2.517887 C.ar      1 <1>         0.133600 
      7 C           4.661170   -0.920694    0.359778 C.ar      1 <1>        -0.186600 
      8 C           3.872860    0.186977    0.055273 C.ar      1 <1>        -0.159700 
      9 C           2.954866    0.647421    0.993542 C.ar      1 <1>         0.357900 
     10 C           2.818267    0.023659    2.231957 C.ar      1 <1>        -0.145300 
     11 C           3.607320   -1.085907    2.522282 C.ar      1 <1>        -0.188900 
     12 C           4.542313   -1.579551    1.594934 C.ar      1 <1>         0.093800 
     13 C           0.909266    1.775963    0.498602 C.ar      1 <1>         0.565400 
     14 C           0.248704    2.990417    0.291964 C.ar      1 <1>        -0.233400 
     15 C          -1.144601    2.921076    0.071474 C.ar      1 <1>         0.326000 
     16 N          -1.817364    1.755424    0.058919 N.ar      1 <1>        -0.583400 
     17 C          -1.069635    0.667261    0.268522 C.ar      1 <1>         0.689300 
     18 N           0.263545    0.623380    0.486924 N.ar      1 <1>        -0.552900 
     19 C           0.145602   -3.657798    0.771459 C.ar      1 <1>        -0.160100 
     20 C          -0.103897   -2.300715    0.612676 C.ar      1 <1>        -0.165000 
     21 C          -1.423627   -1.848702    0.422548 C.ar      1 <1>         0.382300 
     22 C          -2.469190   -2.795612    0.394195 C.ar      1 <1>        -0.204800 
     23 C          -2.213667   -4.147058    0.554070 C.ar      1 <1>        -0.140900 
     24 C          -0.896273   -4.599482    0.747597 C.ar      1 <1>         0.131800 
     25 C           7.796009   -6.141721    2.826595 C.1       1 <1>         0.238100 
     26 N           8.461200   -7.062712    3.077607 N.1       1 <1>        -0.475100 
     27 O           2.248180    1.816698    0.699448 O.3       1 <1>        -0.562200 
     28 N          -1.786520   -0.513809    0.252084 N.pl3     1 <1>        -0.774600 
     29 C          -0.621785   -5.992826    0.919850 C.1       1 <1>         0.225200 
     30 N          -0.395752   -7.125851    1.063656 N.1       1 <1>        -0.484800 
     31 S           0.849439    4.628714    0.255550 S.2       1 <1>         0.279400 
     32 C          -0.771717    5.209527   -0.054932 C.ar      1 <1>        -0.342900 
     33 C          -1.711155    4.228392   -0.127029 C.ar      1 <1>        -0.096800 
     34 H           8.550708   -3.963179    1.464084 H         1 <1>         0.162100 
     35 H           7.156762   -1.991497    0.952199 H         1 <1>         0.147500 
     36 H           3.821773   -3.829787    2.956994 H         1 <1>         0.150200 
     37 H           5.223845   -5.785269    3.498942 H         1 <1>         0.166900 
     38 H           5.358052   -1.294343   -0.384307 H         1 <1>         0.147900 
     39 H           3.958652    0.692135   -0.901342 H         1 <1>         0.153600 
     40 H           2.110292    0.408679    2.957952 H         1 <1>         0.153900 
     41 H           3.518234   -1.556016    3.497023 H         1 <1>         0.149000 
     42 H           1.166899   -3.996833    0.914407 H         1 <1>         0.154700 
     43 H           0.708001   -1.589372    0.634020 H         1 <1>         0.195700 
     44 H          -3.492568   -2.458382    0.247279 H         1 <1>         0.137700 
     45 H          -3.030808   -4.860832    0.531516 H         1 <1>         0.158300 
     46 H          -2.770639   -0.338761    0.092304 H         1 <1>         0.348400 
     47 H          -0.928352    6.274753   -0.167502 H         1 <1>         0.188100 
     48 H          -2.765174    4.396151   -0.311755 H         1 <1>         0.161700 
@<TRIPOS>BOND
     1    8   39 1    
     2    7   38 1    
     3    7    8 ar   
     4    8    9 ar   
     5   12    7 ar   
     6    2   35 1    
     7    1   34 1    
     8    2    1 ar   
     9    3    2 ar   
    10    1    6 ar   
    11   19   42 1    
    12   20   43 1    
    13   29   30 3    
    14   20   19 ar   
    15   19   24 ar   
    16   24   29 1    
    17   21   20 ar   
    18   23   24 ar   
    19   28   21 1    
    20   21   22 ar   
    21    9   27 1    
    22   27   13 1    
    23   22   23 ar   
    24   23   45 1    
    25   13   18 ar   
    26   18   17 ar   
    27    9   10 ar   
    28   17   28 1    
    29   28   46 1    
    30   13   14 ar   
    31   22   44 1    
    32   17   16 ar   
    33   12    3 1    
    34   12   11 ar   
    35   14   15 ar   
    36   14   31 ar   
    37   16   15 ar   
    38    3    4 ar   
    39   15   33 ar   
    40   31   32 ar   
    41    6   25 1    
    42    6    5 ar   
    43   33   32 ar   
    44   33   48 1    
    45   32   47 1    
    46   25   26 3    
    47    4    5 ar   
    48    4   36 1    
    49    5   37 1    
    50   10   11 ar   
    51   10   40 1    
    52   11   41 1    
@<TRIPOS>SUBSTRUCTURE
     1 ****       30 TEMP              0 ****  ****    0 ROOT 
