#	Name:			SYL-2019-BC-102974-3-18
#	Creating user name:	Administrator
#	Creation time:		Sun Jul 05 16:18:09 2020

#	Modifying user name:	Administrator
#	Modification time:	Sun Jul 05 16:19:33 2020

@<TRIPOS>MOLECULE
SYL-2019-BC-102974-3-18
   48    52     1     0     0
SMALL
MULLIKEN_CHARGES
INVALID_CHARGES
Gaussian 16 #p B3LYP/6-31G* opt
@<TRIPOS>ATOM
      1 N          -8.031857   -2.923314   -0.495217 N.1       1 <1>        -0.484100 
      2 C          -6.953746   -2.503418   -0.365968 C.1       1 <1>         0.227400 
      3 C          -5.628321   -1.988600   -0.206862 C.ar      1 <1>         0.131600 
      4 C          -4.549774   -2.857545    0.037039 C.ar      1 <1>        -0.140400 
      5 C          -3.269904   -2.351786    0.190001 C.ar      1 <1>        -0.205800 
      6 C          -3.022307   -0.966261    0.105154 C.ar      1 <1>         0.382500 
      7 N          -1.699567   -0.555209    0.271900 N.pl3     1 <1>        -0.776100 
      8 C          -1.108844    0.692031    0.260506 C.ar      1 <1>         0.698400 
      9 N           0.236340    0.625126    0.474986 N.ar      1 <1>        -0.569900 
     10 C           0.899027    1.760138    0.487017 C.ar      1 <1>         0.569800 
     11 O           2.236794    1.792035    0.712954 O.3       1 <1>        -0.561900 
     12 C           2.982960    0.622610    0.823535 C.ar      1 <1>         0.367000 
     13 C           3.743632    0.458143    1.977699 C.ar      1 <1>        -0.161600 
     14 C           4.582149   -0.648002    2.085358 C.ar      1 <1>        -0.191600 
     15 C           4.685118   -1.611478    1.066950 C.ar      1 <1>         0.016100 
     16 C           5.594479   -2.776000    1.200049 C.ar      1 <1>         0.114000 
     17 C           5.229729   -4.057392    0.748231 C.ar      1 <1>        -0.168700 
     18 C           6.080420   -5.143219    0.914229 C.ar      1 <1>        -0.143300 
     19 C           7.328266   -4.973803    1.536583 C.ar      1 <1>         0.135000 
     20 C           8.208123   -6.092073    1.708980 C.1       1 <1>         0.237500 
     21 N           8.922240   -6.999655    1.850422 N.1       1 <1>        -0.475100 
     22 C           7.708333   -3.698802    1.985596 C.ar      1 <1>        -0.141800 
     23 C           6.849690   -2.619689    1.815012 C.ar      1 <1>        -0.178000 
     24 C           3.893903   -1.391434   -0.071183 C.ar      1 <1>         0.327100 
     25 F           3.953510   -2.265594   -1.099872 F         1 <1>        -0.288900 
     26 C           3.054440   -0.297315   -0.219505 C.ar      1 <1>        -0.213900 
     27 C           0.256022    2.990327    0.287728 C.ar      1 <1>        -0.233500 
     28 S           0.883725    4.616548    0.254813 S.2       1 <1>         0.283500 
     29 C          -0.726597    5.226958   -0.046394 C.ar      1 <1>        -0.343600 
     30 C          -1.682227    4.260181   -0.117803 C.ar      1 <1>        -0.097800 
     31 C          -1.135467    2.945261    0.074266 C.ar      1 <1>         0.329400 
     32 N          -1.832730    1.786701    0.058580 N.ar      1 <1>        -0.576500 
     33 C          -4.099811   -0.094818   -0.138979 C.ar      1 <1>        -0.158700 
     34 C          -5.381668   -0.608525   -0.291389 C.ar      1 <1>        -0.153500 
     35 H          -4.723788   -3.926522    0.105259 H         1 <1>         0.158600 
     36 H          -2.443717   -3.033628    0.378466 H         1 <1>         0.136200 
     37 H          -1.025359   -1.289505    0.444133 H         1 <1>         0.347800 
     38 H           3.669632    1.188828    2.775604 H         1 <1>         0.155700 
     39 H           5.156960   -0.787179    2.995561 H         1 <1>         0.153700 
     40 H           4.268739   -4.206245    0.270539 H         1 <1>         0.153800 
     41 H           5.783316   -6.127964    0.568169 H         1 <1>         0.162900 
     42 H           8.676307   -3.560866    2.456396 H         1 <1>         0.162400 
     43 H           7.166111   -1.634580    2.143683 H         1 <1>         0.148200 
     44 H           2.480654   -0.177945   -1.129778 H         1 <1>         0.167700 
     45 H          -0.865983    6.294912   -0.154771 H         1 <1>         0.189700 
     46 H          -2.734046    4.446197   -0.297309 H         1 <1>         0.163200 
     47 H          -3.917773    0.967866   -0.204996 H         1 <1>         0.187500 
     48 H          -6.208641    0.069095   -0.479445 H         1 <1>         0.157900 
@<TRIPOS>BOND
     1   24   25 1    
     2   26   44 1    
     3   26   24 ar   
     4   12   26 ar   
     5   24   15 ar   
     6   17   40 1    
     7   18   41 1    
     8   17   18 ar   
     9   16   17 ar   
    10   18   19 ar   
    11   29   45 1    
    12   30   46 1    
    13   30   29 ar   
    14   28   29 ar   
    15   31   30 ar   
    16   27   28 ar   
    17   31   27 ar   
    18   32   31 ar   
    19   34   48 1    
    20   33   47 1    
    21   10   27 ar   
    22    8   32 ar   
    23   33   34 ar   
    24   34    3 ar   
    25    6   33 ar   
    26   15   16 1    
    27   16   23 ar   
    28    9   10 ar   
    29   10   11 1    
    30    8    9 ar   
    31    7    8 1    
    32   15   14 ar   
    33   11   12 1    
    34   12   13 ar   
    35    2    1 3    
    36   19   20 1    
    37   19   22 ar   
    38    3    2 1    
    39    3    4 ar   
    40    6    7 1    
    41    6    5 ar   
    42    7   37 1    
    43   20   21 3    
    44    4    5 ar   
    45    4   35 1    
    46    5   36 1    
    47   23   22 ar   
    48   23   43 1    
    49   22   42 1    
    50   14   13 ar   
    51   14   39 1    
    52   13   38 1    
@<TRIPOS>SUBSTRUCTURE
     1 ****        1 TEMP              0 ****  ****    0 ROOT 
