#	Name:			SYL-2019-jmc-11603-3-20
#	Creating user name:	Administrator
#	Creation time:		Sun Jul 05 16:18:11 2020

#	Modifying user name:	Administrator
#	Modification time:	Sun Jul 05 16:19:33 2020

@<TRIPOS>MOLECULE
SYL-2019-jmc-11603-3-20
   54    58     1     0     0
SMALL
MULLIKEN_CHARGES
INVALID_CHARGES

@<TRIPOS>ATOM
      1 C           7.376898   -3.888545    2.500329 C.ar      1 <1>        -0.211300 
      2 C           6.644674   -2.722735    2.266959 C.ar      1 <1>         0.160400 
      3 C           5.395894   -2.824713    1.613024 C.ar      1 <1>        -0.000500 
      4 C           4.923291   -4.083927    1.216829 C.ar      1 <1>        -0.167200 
      5 C           5.655504   -5.242863    1.453789 C.ar      1 <1>        -0.145600 
      6 C           6.895352   -5.145379    2.101050 C.ar      1 <1>         0.148600 
      7 C           4.622565   -0.935336    0.108886 C.ar      1 <1>         0.154000 
      8 C           3.811543    0.188903   -0.085478 C.ar      1 <1>        -0.225900 
      9 C           2.963181    0.633505    0.922066 C.ar      1 <1>         0.371000 
     10 C           2.897466   -0.014010    2.150337 C.ar      1 <1>        -0.155000 
     11 C           3.698491   -1.138015    2.347968 C.ar      1 <1>        -0.174700 
     12 C           4.560325   -1.609527    1.347701 C.ar      1 <1>        -0.006500 
     13 C           0.910258    1.775610    0.498159 C.ar      1 <1>         0.566900 
     14 C           0.248231    2.990297    0.293466 C.ar      1 <1>        -0.233300 
     15 C          -1.144292    2.921047    0.070637 C.ar      1 <1>         0.325900 
     16 N          -1.817776    1.755437    0.057889 N.ar      1 <1>        -0.583900 
     17 C          -1.069964    0.668026    0.270549 C.ar      1 <1>         0.688600 
     18 N           0.263074    0.623688    0.487768 N.ar      1 <1>        -0.553400 
     19 C           0.118619   -3.635852    0.964581 C.ar      1 <1>        -0.162900 
     20 C          -0.127643   -2.282263    0.776253 C.ar      1 <1>        -0.166400 
     21 C          -1.426219   -1.845338    0.451716 C.ar      1 <1>         0.381700 
     22 C          -2.453365   -2.804217    0.322972 C.ar      1 <1>        -0.204500 
     23 C          -2.200097   -4.152594    0.509898 C.ar      1 <1>        -0.141100 
     24 C          -0.903673   -4.590197    0.834893 C.ar      1 <1>         0.132800 
     25 C           7.675189   -6.321932    2.355435 C.1       1 <1>         0.236600 
     26 N           8.311962   -7.273426    2.561863 N.1       1 <1>        -0.477400 
     27 O           2.247916    1.816509    0.698362 O.3       1 <1>        -0.565200 
     28 N          -1.785872   -0.514205    0.251107 N.pl3     1 <1>        -0.775100 
     29 C          -0.628909   -5.980544    1.028513 C.1       1 <1>         0.223300 
     30 N          -0.399737   -7.111265    1.185041 N.1       1 <1>        -0.485200 
     31 S           0.849738    4.628144    0.255435 S.2       1 <1>         0.277900 
     32 C          -0.770599    5.209442   -0.057856 C.ar      1 <1>        -0.343100 
     33 C          -1.710143    4.228409   -0.130501 C.ar      1 <1>        -0.097000 
     34 C           5.536971   -1.405602   -0.999290 C.3       1 <1>        -0.534400 
     35 C           7.190808   -1.386058    2.714306 C.3       1 <1>        -0.533200 
     36 H           8.338931   -3.827556    3.000467 H         1 <1>         0.154000 
     37 H           3.961604   -4.152562    0.715562 H         1 <1>         0.153200 
     38 H           5.276554   -6.211735    1.146011 H         1 <1>         0.166500 
     39 H           3.838691    0.730642   -1.026130 H         1 <1>         0.144100 
     40 H           2.235593    0.350231    2.928634 H         1 <1>         0.150700 
     41 H           3.656025   -1.661861    3.299017 H         1 <1>         0.148300 
     42 H           1.121951   -3.961604    1.221828 H         1 <1>         0.154400 
     43 H           0.671131   -1.562515    0.874963 H         1 <1>         0.199400 
     44 H          -3.460339   -2.479067    0.071845 H         1 <1>         0.137500 
     45 H          -3.002637   -4.875614    0.405466 H         1 <1>         0.158000 
     46 H          -2.765107   -0.343113    0.060333 H         1 <1>         0.348000 
     47 H          -0.926947    6.274660   -0.171158 H         1 <1>         0.187300 
     48 H          -2.763806    4.396265   -0.316865 H         1 <1>         0.161000 
     49 H           5.248502   -2.398333   -1.364436 H         1 <1>         0.174700 
     50 H           6.575719   -1.487023   -0.658768 H         1 <1>         0.170200 
     51 H           5.511656   -0.715742   -1.847676 H         1 <1>         0.161400 
     52 H           7.248164   -0.674985    1.882198 H         1 <1>         0.170600 
     53 H           8.193666   -1.494827    3.137199 H         1 <1>         0.162300 
     54 H           6.551131   -0.925862    3.476230 H         1 <1>         0.173300 
@<TRIPOS>BOND
     1   10   40 1    
     2   11   41 1    
     3   35   54 1    
     4   35   53 1    
     5   10   11 ar   
     6    9   10 ar   
     7   11   12 ar   
     8    2   35 1    
     9   35   52 1    
    10    1   36 1    
    11    2    1 ar   
    12    1    6 ar   
    13    3    2 ar   
    14   19   42 1    
    15   20   43 1    
    16   25   26 3    
    17    6   25 1    
    18   20   19 ar   
    19   19   24 ar   
    20   32   31 ar   
    21   14   31 ar   
    22   32   47 1    
    23    6    5 ar   
    24   21   20 ar   
    25   33   32 ar   
    26   13   14 ar   
    27   15   14 ar   
    28   29   30 3    
    29   27    9 1    
    30    9    8 ar   
    31   13   27 1    
    32   15   33 ar   
    33   33   48 1    
    34   18   13 ar   
    35   12    3 1    
    36    3    4 ar   
    37   24   29 1    
    38   16   15 ar   
    39   24   23 ar   
    40   12    7 ar   
    41   17   18 ar   
    42   17   16 ar   
    43   28   17 1    
    44   21   28 1    
    45   21   22 ar   
    46   28   46 1    
    47   23   22 ar   
    48   23   45 1    
    49   22   44 1    
    50    5    4 ar   
    51    5   38 1    
    52    4   37 1    
    53    8    7 ar   
    54    8   39 1    
    55    7   34 1    
    56   34   50 1    
    57   34   49 1    
    58   34   51 1    
@<TRIPOS>SUBSTRUCTURE
     1 ****       30 TEMP              0 ****  ****    0 ROOT 
