#	Name:			SYL-2019-BC-102974-3-32
#	Creating user name:	Administrator
#	Creation time:		Sun Jul 05 16:18:10 2020

#	Modifying user name:	Administrator
#	Modification time:	Sun Jul 05 16:19:33 2020

@<TRIPOS>MOLECULE
SYL-2019-BC-102974-3-32
   51    55     1     0     0
SMALL
MULLIKEN_CHARGES
INVALID_CHARGES

@<TRIPOS>ATOM
      1 C           7.210036   -4.248277    1.461329 C.ar      1 <1>        -0.140400 
      2 C           6.443636   -3.125691    1.172572 C.ar      1 <1>        -0.176800 
      3 C           5.277931   -2.834460    1.902364 C.ar      1 <1>         0.096300 
      4 C           4.903083   -3.710383    2.936425 C.ar      1 <1>        -0.181100 
      5 C           5.661426   -4.836223    3.234876 C.ar      1 <1>        -0.139100 
      6 C           6.824389   -5.114146    2.497969 C.ar      1 <1>         0.135200 
      7 C           4.272953   -1.217222    0.261201 C.ar      1 <1>        -0.259600 
      8 C           3.511602   -0.092347   -0.062985 C.ar      1 <1>         0.176700 
      9 C           2.928409    0.631244    0.985261 C.ar      1 <1>         0.294600 
     10 C           3.112389    0.239428    2.313332 C.ar      1 <1>        -0.092500 
     11 C           3.871982   -0.886828    2.617018 C.ar      1 <1>        -0.206100 
     12 C           4.463927   -1.633311    1.588549 C.ar      1 <1>         0.114200 
     13 C           0.906433    1.778684    0.497916 C.ar      1 <1>         0.579800 
     14 C           0.248618    2.992663    0.291320 C.ar      1 <1>        -0.232100 
     15 C          -1.145347    2.921099    0.070794 C.ar      1 <1>         0.325300 
     16 N          -1.816604    1.754987    0.059655 N.ar      1 <1>        -0.582900 
     17 C          -1.069506    0.666743    0.270268 C.ar      1 <1>         0.691300 
     18 N           0.264953    0.624555    0.484409 N.ar      1 <1>        -0.554500 
     19 C           0.127801   -3.652763    0.870779 C.ar      1 <1>        -0.158500 
     20 C          -0.119141   -2.295443    0.708185 C.ar      1 <1>        -0.163700 
     21 C          -1.425537   -1.848763    0.433126 C.ar      1 <1>         0.383300 
     22 C          -2.461633   -2.800707    0.329920 C.ar      1 <1>        -0.204900 
     23 C          -2.209175   -4.152064    0.494264 C.ar      1 <1>        -0.140600 
     24 C          -0.904385   -4.599564    0.768012 C.ar      1 <1>         0.131600 
     25 C           7.615073   -6.270371    2.802344 C.1       1 <1>         0.239100 
     26 N           8.260623   -7.206188    3.049211 N.1       1 <1>        -0.473500 
     27 O           2.248460    1.811935    0.701255 O.3       1 <1>        -0.559100 
     28 N          -1.785432   -0.514256    0.252317 N.pl3     1 <1>        -0.776000 
     29 C          -0.633625   -5.993736    0.940119 C.1       1 <1>         0.226000 
     30 N          -0.412029   -7.127909    1.081319 N.1       1 <1>        -0.484400 
     31 S           0.846853    4.631393    0.257288 S.2       1 <1>         0.284000 
     32 C          -0.774508    5.209527   -0.056431 C.ar      1 <1>        -0.342600 
     33 C          -1.713064    4.227535   -0.128817 C.ar      1 <1>        -0.096600 
     34 C           3.300076    0.336024   -1.493255 C.3       1 <1>        -0.535900 
     35 CL          2.400849    1.175562    3.607571 Cl        1 <1>         0.014700 
     36 H           8.113004   -4.456375    0.896394 H         1 <1>         0.163600 
     37 H           6.767832   -2.449601    0.387331 H         1 <1>         0.148600 
     38 H           3.992962   -3.520726    3.497487 H         1 <1>         0.152700 
     39 H           5.355212   -5.509042    4.029326 H         1 <1>         0.167300 
     40 H           4.706616   -1.799396   -0.546716 H         1 <1>         0.143500 
     41 H           4.023303   -1.156646    3.656115 H         1 <1>         0.165700 
     42 H           1.138797   -3.987441    1.081706 H         1 <1>         0.155100 
     43 H           0.684417   -1.579552    0.793402 H         1 <1>         0.191500 
     44 H          -3.475160   -2.467716    0.118165 H         1 <1>         0.138000 
     45 H          -3.018882   -4.869884    0.411864 H         1 <1>         0.158600 
     46 H          -2.767123   -0.340246    0.076677 H         1 <1>         0.348800 
     47 H          -0.932341    6.274586   -0.168675 H         1 <1>         0.188600 
     48 H          -2.767292    4.394172   -0.313241 H         1 <1>         0.162100 
     49 H           2.247157    0.234212   -1.781398 H         1 <1>         0.182000 
     50 H           3.897735   -0.276466   -2.173772 H         1 <1>         0.163200 
     51 H           3.576736    1.385660   -1.639523 H         1 <1>         0.179400 
@<TRIPOS>BOND
     1   34   50 1    
     2   34   51 1    
     3   34   49 1    
     4    8   34 1    
     5    7   40 1    
     6    2   37 1    
     7    1   36 1    
     8    8    7 ar   
     9    9    8 ar   
    10    7   12 ar   
    11    2    1 ar   
    12    3    2 ar   
    13    1    6 ar   
    14   27    9 1    
    15   13   27 1    
    16    9   10 ar   
    17   18   13 ar   
    18   13   14 ar   
    19   14   31 ar   
    20   32   31 ar   
    21   17   18 ar   
    22   15   14 ar   
    23   12    3 1    
    24   12   11 ar   
    25   19   42 1    
    26   20   43 1    
    27    3    4 ar   
    28   32   47 1    
    29   33   32 ar   
    30   20   19 ar   
    31   19   24 ar   
    32   21   20 ar   
    33   15   33 ar   
    34   16   15 ar   
    35   17   16 ar   
    36   28   17 1    
    37   33   48 1    
    38    6   25 1    
    39    6    5 ar   
    40   24   29 1    
    41   24   23 ar   
    42   29   30 3    
    43   21   28 1    
    44   21   22 ar   
    45   28   46 1    
    46   25   26 3    
    47   22   23 ar   
    48   22   44 1    
    49   23   45 1    
    50    4    5 ar   
    51    4   38 1    
    52    5   39 1    
    53   10   11 ar   
    54   10   35 1    
    55   11   41 1    
@<TRIPOS>SUBSTRUCTURE
     1 ****       42 TEMP              0 ****  ****    0 ROOT 
