#	Name:			SYL-2019-jmc-11603-3-9
#	Creating user name:	Administrator
#	Creation time:		Sun Jul 05 16:18:11 2020

#	Modifying user name:	Administrator
#	Modification time:	Sun Jul 05 16:19:33 2020

@<TRIPOS>MOLECULE
SYL-2019-jmc-11603-3-9
   48    52     1     0     0
SMALL
MULLIKEN_CHARGES
INVALID_CHARGES

@<TRIPOS>ATOM
      1 C           7.574662   -3.797928    2.061665 C.ar      1 <1>        -0.097200 
      2 C           6.773871   -2.711150    1.729294 C.ar      1 <1>        -0.188200 
      3 C           5.408577   -2.697004    2.056993 C.ar      1 <1>         0.109500 
      4 C           4.871138   -3.807499    2.731619 C.ar      1 <1>        -0.182500 
      5 C           5.669641   -4.892358    3.065626 C.ar      1 <1>        -0.133300 
      6 C           7.037012   -4.909058    2.737558 C.ar      1 <1>         0.148200 
      7 C           4.745729   -0.850503    0.484243 C.ar      1 <1>        -0.185400 
      8 C           3.948806    0.240737    0.145237 C.ar      1 <1>        -0.162200 
      9 C           2.957421    0.660613    1.026704 C.ar      1 <1>         0.359000 
     10 C           2.754895    0.010680    2.243055 C.ar      1 <1>        -0.143100 
     11 C           3.551924   -1.083366    2.567207 C.ar      1 <1>        -0.188100 
     12 C           4.561046   -1.533744    1.697457 C.ar      1 <1>         0.091700 
     13 C           0.908710    1.775796    0.499355 C.ar      1 <1>         0.565500 
     14 C           0.249058    2.990266    0.292133 C.ar      1 <1>        -0.233700 
     15 C          -1.144543    2.921065    0.071438 C.ar      1 <1>         0.326100 
     16 N          -1.817180    1.755449    0.058983 N.ar      1 <1>        -0.582600 
     17 C          -1.069678    0.667015    0.267593 C.ar      1 <1>         0.689300 
     18 N           0.263533    0.623044    0.486425 N.ar      1 <1>        -0.553500 
     19 C           0.155829   -3.662732    0.695609 C.ar      1 <1>        -0.159600 
     20 C          -0.096631   -2.304770    0.549306 C.ar      1 <1>        -0.164500 
     21 C          -1.421570   -1.849551    0.410571 C.ar      1 <1>         0.382600 
     22 C          -2.469405   -2.794253    0.419110 C.ar      1 <1>        -0.204600 
     23 C          -2.210944   -4.146569    0.566134 C.ar      1 <1>        -0.140800 
     24 C          -0.888087   -4.602206    0.709270 C.ar      1 <1>         0.132000 
     25 C           7.837737   -6.039437    3.095488 C.1       1 <1>         0.241700 
     26 N           8.457138   -6.974074    3.404603 N.1       1 <1>        -0.468500 
     27 O           2.248618    1.817489    0.699271 O.3       1 <1>        -0.560900 
     28 N          -1.786943   -0.513713    0.252738 N.pl3     1 <1>        -0.774400 
     29 C          -0.609867   -5.996241    0.869187 C.1       1 <1>         0.225200 
     30 N          -0.380042   -7.129648    1.003452 N.1       1 <1>        -0.484200 
     31 S           0.849909    4.628245    0.256784 S.2       1 <1>         0.280900 
     32 C          -0.771125    5.209305   -0.053924 C.ar      1 <1>        -0.342700 
     33 C          -1.710878    4.228602   -0.126455 C.ar      1 <1>        -0.096600 
     34 CL          9.270054   -3.760145    1.641072 Cl        1 <1>         0.039500 
     35 H           7.226246   -1.858420    1.235903 H         1 <1>         0.167400 
     36 H           3.813426   -3.832010    2.973414 H         1 <1>         0.155000 
     37 H           5.245079   -5.750002    3.576972 H         1 <1>         0.174700 
     38 H           5.501024   -1.191466   -0.217475 H         1 <1>         0.151100 
     39 H           4.084716    0.765478   -0.794710 H         1 <1>         0.156200 
     40 H           1.989747    0.362009    2.926478 H         1 <1>         0.156300 
     41 H           3.409930   -1.574101    3.525321 H         1 <1>         0.150300 
     42 H           1.181060   -4.004600    0.798426 H         1 <1>         0.153800 
     43 H           0.717114   -1.595247    0.541398 H         1 <1>         0.193500 
     44 H          -3.496990   -2.454747    0.311493 H         1 <1>         0.138400 
     45 H          -3.029858   -4.858622    0.572675 H         1 <1>         0.159000 
     46 H          -2.772711   -0.338039    0.104220 H         1 <1>         0.348800 
     47 H          -0.927416    6.274632   -0.166279 H         1 <1>         0.188900 
     48 H          -2.764730    4.396608   -0.311449 H         1 <1>         0.162400 
@<TRIPOS>BOND
     1    8   39 1    
     2    7   38 1    
     3    7    8 ar   
     4    8    9 ar   
     5   12    7 ar   
     6    1   34 1    
     7    2   35 1    
     8   19   42 1    
     9   29   30 3    
    10   20   19 ar   
    11   19   24 ar   
    12   20   43 1    
    13   24   29 1    
    14    2    1 ar   
    15    3    2 ar   
    16   21   20 ar   
    17   23   24 ar   
    18    1    6 ar   
    19   28   21 1    
    20   21   22 ar   
    21   23   45 1    
    22   22   23 ar   
    23   28   46 1    
    24   17   28 1    
    25   22   44 1    
    26   18   17 ar   
    27   13   18 ar   
    28   17   16 ar   
    29   27   13 1    
    30    9   27 1    
    31   13   14 ar   
    32   15   16 ar   
    33   14   15 ar   
    34   14   31 ar   
    35   15   33 ar   
    36    9   10 ar   
    37   33   48 1    
    38   32   33 ar   
    39   31   32 ar   
    40   32   47 1    
    41   12    3 1    
    42   12   11 ar   
    43    3    4 ar   
    44    6   25 1    
    45    6    5 ar   
    46   25   26 3    
    47    4    5 ar   
    48    4   36 1    
    49    5   37 1    
    50   10   11 ar   
    51   10   40 1    
    52   11   41 1    
@<TRIPOS>SUBSTRUCTURE
     1 ****       30 TEMP              0 ****  ****    0 ROOT 
