#	Name:			SYL-2019-jmc-11603-3-6
#	Creating user name:	Administrator
#	Creation time:		Sun Jul 05 16:18:11 2020

#	Modifying user name:	Administrator
#	Modification time:	Sun Jul 05 16:19:33 2020

@<TRIPOS>MOLECULE
SYL-2019-jmc-11603-3-6
   48    52     1     0     0
SMALL
MULLIKEN_CHARGES
INVALID_CHARGES

@<TRIPOS>ATOM
      1 C           7.190911   -4.360720    1.141565 C.ar      1 <1>        -0.210800 
      2 C           6.437385   -3.224201    0.898139 C.ar      1 <1>         0.334600 
      3 C           5.274867   -2.902639    1.616334 C.ar      1 <1>         0.023300 
      4 C           4.892774   -3.812217    2.619701 C.ar      1 <1>        -0.188000 
      5 C           5.622344   -4.963487    2.892069 C.ar      1 <1>        -0.134400 
      6 C           6.781755   -5.244079    2.151464 C.ar      1 <1>         0.136700 
      7 C           4.257720   -1.198156    0.054125 C.ar      1 <1>        -0.176800 
      8 C           3.487617   -0.059502   -0.168296 C.ar      1 <1>        -0.154100 
      9 C           2.943651    0.619245    0.918241 C.ar      1 <1>         0.361900 
     10 C           3.164960    0.185697    2.221403 C.ar      1 <1>        -0.152400 
     11 C           3.934078   -0.955712    2.434160 C.ar      1 <1>        -0.185200 
     12 C           4.488887   -1.670453    1.358525 C.ar      1 <1>         0.105100 
     13 C           0.909644    1.776932    0.493322 C.ar      1 <1>         0.563900 
     14 C           0.248632    2.991489    0.288367 C.ar      1 <1>        -0.231500 
     15 C          -1.145438    2.921487    0.073218 C.ar      1 <1>         0.325500 
     16 N          -1.817889    1.755433    0.061448 N.ar      1 <1>        -0.583400 
     17 C          -1.069252    0.667565    0.268670 C.ar      1 <1>         0.689000 
     18 N           0.264320    0.624179    0.484569 N.ar      1 <1>        -0.553000 
     19 C           0.150789   -3.656242    0.771357 C.ar      1 <1>        -0.159300 
     20 C          -0.101488   -2.298372    0.623246 C.ar      1 <1>        -0.164400 
     21 C          -1.419559   -1.849405    0.415058 C.ar      1 <1>         0.382500 
     22 C          -2.460675   -2.799974    0.359392 C.ar      1 <1>        -0.204900 
     23 C          -2.202418   -4.152108    0.508562 C.ar      1 <1>        -0.141000 
     24 C          -0.886570   -4.601638    0.718659 C.ar      1 <1>         0.131500 
     25 C           7.547781   -6.425261    2.421092 C.1       1 <1>         0.241800 
     26 N           8.170809   -7.381875    2.643935 N.1       1 <1>        -0.469500 
     27 F           6.868826   -2.390213   -0.071783 F         1 <1>        -0.285500 
     28 O           2.246707    1.813590    0.705634 O.3       1 <1>        -0.564500 
     29 N          -1.785149   -0.514264    0.252707 N.pl3     1 <1>        -0.774500 
     30 C          -0.609246   -5.995911    0.878175 C.1       1 <1>         0.225300 
     31 N          -0.381075   -7.129894    1.011075 N.1       1 <1>        -0.485000 
     32 S           0.848541    4.629873    0.250420 S.2       1 <1>         0.279600 
     33 C          -0.773957    5.210144   -0.053809 C.ar      1 <1>        -0.343000 
     34 C          -1.713135    4.228602   -0.122954 C.ar      1 <1>        -0.096800 
     35 H           8.084507   -4.544906    0.556279 H         1 <1>         0.176500 
     36 H           3.985575   -3.615784    3.182446 H         1 <1>         0.157600 
     37 H           5.296531   -5.650960    3.664932 H         1 <1>         0.168600 
     38 H           4.676101   -1.726976   -0.794009 H         1 <1>         0.156500 
     39 H           3.307081    0.303556   -1.174762 H         1 <1>         0.154200 
     40 H           2.748450    0.744256    3.053283 H         1 <1>         0.153300 
     41 H           4.125919   -1.281487    3.452121 H         1 <1>         0.148600 
     42 H           1.170706   -3.992687    0.929319 H         1 <1>         0.153600 
     43 H           0.706630   -1.583853    0.667156 H         1 <1>         0.194800 
     44 H          -3.482764   -2.465313    0.198000 H         1 <1>         0.137600 
     45 H          -3.016175   -4.868642    0.464056 H         1 <1>         0.158200 
     46 H          -2.769183   -0.340459    0.091136 H         1 <1>         0.348300 
     47 H          -0.931371    6.275453   -0.165493 H         1 <1>         0.188000 
     48 H          -2.767842    4.395998   -0.303848 H         1 <1>         0.161500 
@<TRIPOS>BOND
     1    7   38 1    
     2    8   39 1    
     3    2   27 1    
     4    1   35 1    
     5    7    8 ar   
     6    8    9 ar   
     7   12    7 ar   
     8    2    1 ar   
     9    3    2 ar   
    10    1    6 ar   
    11   30   31 3    
    12   24   30 1    
    13   23   45 1    
    14   23   24 ar   
    15   19   24 ar   
    16   22   23 ar   
    17   19   42 1    
    18   20   19 ar   
    19   22   44 1    
    20   21   22 ar   
    21   21   20 ar   
    22   20   43 1    
    23   29   21 1    
    24   29   46 1    
    25   17   29 1    
    26   17   16 ar   
    27   18   17 ar   
    28   15   16 ar   
    29   34   48 1    
    30   13   18 ar   
    31   15   34 ar   
    32   14   15 ar   
    33   33   34 ar   
    34   13   14 ar   
    35   28   13 1    
    36   14   32 ar   
    37   33   47 1    
    38   32   33 ar   
    39    9   28 1    
    40    9   10 ar   
    41   12    3 1    
    42   12   11 ar   
    43    3    4 ar   
    44    6   25 1    
    45    6    5 ar   
    46   25   26 3    
    47    4    5 ar   
    48    4   36 1    
    49    5   37 1    
    50   11   10 ar   
    51   11   41 1    
    52   10   40 1    
@<TRIPOS>SUBSTRUCTURE
     1 ****       31 TEMP              0 ****  ****    0 ROOT 
