#	Name:			SYL-2019-jmc-11603-3-16
#	Creating user name:	Administrator
#	Creation time:		Sun Jul 05 16:18:10 2020

#	Modifying user name:	Administrator
#	Modification time:	Sun Jul 05 16:19:33 2020

@<TRIPOS>MOLECULE
SYL-2019-jmc-11603-3-16
   48    52     1     0     0
SMALL
MULLIKEN_CHARGES
INVALID_CHARGES

@<TRIPOS>ATOM
      1 C           6.214424   -4.973767    1.823351 C.ar      1 <1>        -0.143800 
      2 C           5.404428   -3.914230    1.425677 C.ar      1 <1>        -0.098500 
      3 C           5.509764   -2.643275    2.015839 C.ar      1 <1>         0.057500 
      4 C           6.456662   -2.476706    3.038305 C.ar      1 <1>        -0.150600 
      5 C           7.277414   -3.518988    3.452910 C.ar      1 <1>        -0.134700 
      6 C           7.159137   -4.775863    2.840858 C.ar      1 <1>         0.141700 
      7 C           4.851217   -0.725231    0.479562 C.ar      1 <1>        -0.103300 
      8 C           4.027722    0.353079    0.159143 C.ar      1 <1>        -0.168100 
      9 C           2.975174    0.674562    1.009463 C.ar      1 <1>         0.367600 
     10 C           2.739431   -0.051811    2.174818 C.ar      1 <1>        -0.141000 
     11 C           3.570307   -1.129512    2.468233 C.ar      1 <1>        -0.163900 
     12 C           4.635945   -1.496581    1.631513 C.ar      1 <1>         0.050300 
     13 C           0.907366    1.774769    0.499718 C.ar      1 <1>         0.566500 
     14 C           0.249703    2.989618    0.293724 C.ar      1 <1>        -0.234200 
     15 C          -1.143702    2.920512    0.071259 C.ar      1 <1>         0.327000 
     16 N          -1.816031    1.755700    0.058060 N.ar      1 <1>        -0.582400 
     17 C          -1.070139    0.665445    0.267556 C.ar      1 <1>         0.689300 
     18 N           0.264126    0.621730    0.486835 N.ar      1 <1>        -0.553700 
     19 C           0.133386   -3.672020    0.724513 C.ar      1 <1>        -0.163300 
     20 C          -0.110895   -2.313375    0.566021 C.ar      1 <1>        -0.169700 
     21 C          -1.431756   -1.850424    0.421375 C.ar      1 <1>         0.382500 
     22 C          -2.486478   -2.786917    0.435230 C.ar      1 <1>        -0.205000 
     23 C          -2.237332   -4.139778    0.592843 C.ar      1 <1>        -0.140100 
     24 C          -0.917894   -4.603105    0.742396 C.ar      1 <1>         0.130600 
     25 C           7.998860   -5.862539    3.254999 C.1       1 <1>         0.244700 
     26 N           8.683247   -6.738899    3.595461 N.1       1 <1>        -0.467700 
     27 O           2.249491    1.821251    0.698000 O.3       1 <1>        -0.560100 
     28 N          -1.789239   -0.512615    0.252784 N.pl3     1 <1>        -0.774300 
     29 C          -0.653479   -5.999198    0.910538 C.1       1 <1>         0.226100 
     30 N          -0.440675   -7.135346    1.049296 N.1       1 <1>        -0.484400 
     31 S           0.851467    4.627483    0.257707 S.2       1 <1>         0.280700 
     32 C          -0.769426    5.208595   -0.054874 C.ar      1 <1>        -0.342400 
     33 C          -1.709363    4.228267   -0.128118 C.ar      1 <1>        -0.096300 
     34 CL          4.220680   -4.215062    0.167764 Cl        1 <1>         0.023200 
     35 CL          6.191858   -1.082442   -0.593176 Cl        1 <1>         0.016200 
     36 H           6.109980   -5.944566    1.353090 H         1 <1>         0.189000 
     37 H           6.548905   -1.501187    3.505669 H         1 <1>         0.160200 
     38 H           8.006765   -3.367805    4.241426 H         1 <1>         0.169000 
     39 H           4.204948    0.943568   -0.731915 H         1 <1>         0.175800 
     40 H           1.921820    0.216182    2.833430 H         1 <1>         0.161600 
     41 H           3.392474   -1.710008    3.368577 H         1 <1>         0.159700 
     42 H           1.156690   -4.017777    0.832974 H         1 <1>         0.169900 
     43 H           0.708575   -1.610725    0.552025 H         1 <1>         0.192000 
     44 H          -3.511533   -2.440979    0.323818 H         1 <1>         0.137400 
     45 H          -3.061052   -4.846337    0.602820 H         1 <1>         0.158200 
     46 H          -2.774181   -0.333909    0.102139 H         1 <1>         0.349000 
     47 H          -0.925177    6.273934   -0.168110 H         1 <1>         0.189200 
     48 H          -2.762993    4.396588   -0.314650 H         1 <1>         0.162800 
@<TRIPOS>BOND
     1   11   41 1    
     2    5   38 1    
     3   10   40 1    
     4    4   37 1    
     5    4    5 ar   
     6    5    6 ar   
     7   10   11 ar   
     8   11   12 ar   
     9    9   10 ar   
    10    3    4 ar   
    11   25   26 3    
    12    6   25 1    
    13    6    1 ar   
    14   12    3 1    
    15    3    2 ar   
    16   12    7 ar   
    17   32   47 1    
    18   31   32 ar   
    19   33   32 ar   
    20   14   31 ar   
    21   33   48 1    
    22   22   44 1    
    23   15   33 ar   
    24   27    9 1    
    25    9    8 ar   
    26   15   14 ar   
    27   13   14 ar   
    28   16   15 ar   
    29   23   45 1    
    30   13   27 1    
    31   18   13 ar   
    32   17   16 ar   
    33   22   23 ar   
    34   21   22 ar   
    35   17   18 ar   
    36   28   17 1    
    37   28   46 1    
    38   23   24 ar   
    39   28   21 1    
    40   21   20 ar   
    41   24   29 1    
    42   24   19 ar   
    43   29   30 3    
    44   20   19 ar   
    45   20   43 1    
    46   19   42 1    
    47    1    2 ar   
    48    1   36 1    
    49    2   34 1    
    50    7    8 ar   
    51    7   35 1    
    52    8   39 1    
@<TRIPOS>SUBSTRUCTURE
     1 ****       47 TEMP              0 ****  ****    0 ROOT 
