#	Name:			SYL-2019-BC-102974-3-16
#	Creating user name:	Administrator
#	Creation time:		Sun Jul 05 16:18:08 2020

#	Modifying user name:	Administrator
#	Modification time:	Sun Jul 05 16:19:33 2020

@<TRIPOS>MOLECULE
SYL-2019-BC-102974-3-16
   51    55     1     0     0
SMALL
MULLIKEN_CHARGES
INVALID_CHARGES
Gaussian 16 #p B3LYP/6-31G* opt
@<TRIPOS>ATOM
      1 C           5.107781   -0.934037    3.564378 C.3       1 <1>        -0.537000 
      2 C           4.454937   -0.728329    2.214294 C.ar      1 <1>         0.138300 
      3 C           3.614190    0.378482    2.041384 C.ar      1 <1>        -0.225600 
      4 C           2.968264    0.606271    0.833326 C.ar      1 <1>         0.369300 
      5 O           2.235620    1.790610    0.710798 O.3       1 <1>        -0.563500 
      6 C           0.900737    1.760256    0.488695 C.ar      1 <1>         0.569400 
      7 N           0.236040    0.625247    0.476221 N.ar      1 <1>        -0.568800 
      8 C          -1.108048    0.693246    0.260450 C.ar      1 <1>         0.696500 
      9 N          -1.698660   -0.555357    0.271817 N.pl3     1 <1>        -0.776200 
     10 C          -3.019879   -0.967372    0.103431 C.ar      1 <1>         0.383000 
     11 C          -4.097861   -0.096920   -0.143613 C.ar      1 <1>        -0.159000 
     12 C          -5.379024   -0.611557   -0.298157 C.ar      1 <1>        -0.153600 
     13 C          -5.625256   -1.991799   -0.212881 C.ar      1 <1>         0.131000 
     14 C          -6.950015   -2.507637   -0.374366 C.1       1 <1>         0.226800 
     15 N          -8.027468   -2.928714   -0.505694 N.1       1 <1>        -0.485100 
     16 C          -4.546584   -2.859728    0.034240 C.ar      1 <1>        -0.140600 
     17 C          -3.267373   -2.353175    0.189284 C.ar      1 <1>        -0.205900 
     18 N          -1.833340    1.786625    0.057443 N.ar      1 <1>        -0.577700 
     19 C          -1.135623    2.945539    0.073849 C.ar      1 <1>         0.328800 
     20 C          -1.682248    4.260531   -0.118834 C.ar      1 <1>        -0.098400 
     21 C          -0.726813    5.227515   -0.046789 C.ar      1 <1>        -0.344300 
     22 S           0.882882    4.616391    0.255944 S.2       1 <1>         0.281000 
     23 C           0.254849    2.990244    0.288663 C.ar      1 <1>        -0.233300 
     24 C           3.128075   -0.260957   -0.242605 C.ar      1 <1>        -0.143800 
     25 C           3.952789   -1.368142   -0.076410 C.ar      1 <1>        -0.185400 
     26 C           4.630838   -1.618392    1.129855 C.ar      1 <1>         0.027100 
     27 C           5.500122   -2.825697    1.208734 C.ar      1 <1>         0.074000 
     28 C           6.845883   -2.743028    1.605592 C.ar      1 <1>        -0.168400 
     29 C           7.657049   -3.871555    1.640197 C.ar      1 <1>        -0.140900 
     30 C           7.134685   -5.123150    1.274300 C.ar      1 <1>         0.132400 
     31 C           7.965589   -6.290698    1.310502 C.1       1 <1>         0.237700 
     32 N           8.639944   -7.238355    1.340319 N.1       1 <1>        -0.475600 
     33 C           5.792927   -5.221566    0.871319 C.ar      1 <1>        -0.140500 
     34 C           4.993606   -4.084455    0.839895 C.ar      1 <1>        -0.172200 
     35 H           4.519725   -0.450935    4.350784 H         1 <1>         0.164600 
     36 H           6.114103   -0.497837    3.602338 H         1 <1>         0.168600 
     37 H           5.205845   -1.993982    3.814691 H         1 <1>         0.173600 
     38 H           3.452369    1.074929    2.858742 H         1 <1>         0.143700 
     39 H          -1.023118   -1.288004    0.445299 H         1 <1>         0.347200 
     40 H          -3.915805    0.965764   -0.210082 H         1 <1>         0.187500 
     41 H          -6.205996    0.065386   -0.488416 H         1 <1>         0.157300 
     42 H          -4.720258   -3.928695    0.103326 H         1 <1>         0.157500 
     43 H          -2.441243   -3.034247    0.380471 H         1 <1>         0.134800 
     44 H          -2.734020    4.446549   -0.299342 H         1 <1>         0.161600 
     45 H          -0.866090    6.295479   -0.155178 H         1 <1>         0.188100 
     46 H           2.624201   -0.071463   -1.183708 H         1 <1>         0.150000 
     47 H           4.100267   -2.047654   -0.911124 H         1 <1>         0.145700 
     48 H           7.268498   -1.778423    1.867962 H         1 <1>         0.148600 
     49 H           8.696822   -3.791391    1.940771 H         1 <1>         0.162100 
     50 H           5.386025   -6.187924    0.591275 H         1 <1>         0.162000 
     51 H           3.953307   -4.170701    0.540115 H         1 <1>         0.147500 
@<TRIPOS>BOND
     1    1   35 1    
     2    1   37 1    
     3    1   36 1    
     4    2    1 1    
     5    3   38 1    
     6    3    2 ar   
     7    2   26 ar   
     8    4    3 ar   
     9   28   48 1    
    10   16   42 1    
    11   17   43 1    
    12   17   16 ar   
    13   16   13 ar   
    14   14   15 3    
    15   10   17 ar   
    16   13   14 1    
    17   29   49 1    
    18   12   13 ar   
    19    9   39 1    
    20   28   29 ar   
    21   27   28 ar   
    22    9   10 1    
    23   10   11 ar   
    24    8    9 1    
    25   11   12 ar   
    26   12   41 1    
    27   29   30 ar   
    28   11   40 1    
    29    7    8 ar   
    30    6    7 ar   
    31    8   18 ar   
    32   26   27 1    
    33   26   25 ar   
    34    5    4 1    
    35    4   24 ar   
    36    5    6 1    
    37    6   23 ar   
    38   27   34 ar   
    39   18   19 ar   
    40   23   19 ar   
    41   23   22 ar   
    42   19   20 ar   
    43   20   44 1    
    44   20   21 ar   
    45   22   21 ar   
    46   30   31 1    
    47   30   33 ar   
    48   21   45 1    
    49   31   32 3    
    50   34   33 ar   
    51   34   51 1    
    52   33   50 1    
    53   25   24 ar   
    54   25   47 1    
    55   24   46 1    
@<TRIPOS>SUBSTRUCTURE
     1 ****       35 TEMP              0 ****  ****    0 ROOT 
