#	Name:			SYL-2019-BC-102974-3-25
#	Creating user name:	Administrator
#	Creation time:		Sun Jul 05 16:18:09 2020

#	Modifying user name:	Administrator
#	Modification time:	Sun Jul 05 16:19:33 2020

@<TRIPOS>MOLECULE
SYL-2019-BC-102974-3-25
   50    54     1     0     0
SMALL
MULLIKEN_CHARGES
INVALID_CHARGES

@<TRIPOS>ATOM
      1 C           5.949700   -5.175317    0.497031 C.ar      1 <1>        -0.139600 
      2 C           5.150872   -4.042622    0.393677 C.ar      1 <1>        -0.180600 
      3 C           5.488314   -2.853724    1.063702 C.ar      1 <1>         0.102600 
      4 C           6.656839   -2.834765    1.844565 C.ar      1 <1>        -0.179700 
      5 C           7.463317   -3.960969    1.955319 C.ar      1 <1>        -0.139600 
      6 C           7.114911   -5.142563    1.280606 C.ar      1 <1>         0.136300 
      7 C           3.997948   -1.326391   -0.253663 C.ar      1 <1>        -0.226400 
      8 C           3.194167   -0.193950   -0.371044 C.ar      1 <1>         0.295500 
      9 C           2.980405    0.645290    0.736569 C.ar      1 <1>         0.351600 
     10 C           3.609408    0.328886    1.939836 C.ar      1 <1>        -0.178000 
     11 C           4.424794   -0.792086    2.048028 C.ar      1 <1>        -0.164700 
     12 C           4.630224   -1.648399    0.952574 C.ar      1 <1>         0.088400 
     13 C           0.905403    1.778909    0.479201 C.ar      1 <1>         0.587200 
     14 C           0.250995    2.992861    0.283555 C.ar      1 <1>        -0.226000 
     15 C          -1.145735    2.921199    0.074837 C.ar      1 <1>         0.327000 
     16 N          -1.816218    1.755306    0.068018 N.ar      1 <1>        -0.582000 
     17 C          -1.069291    0.665978    0.271152 C.ar      1 <1>         0.697100 
     18 N           0.265677    0.625418    0.482909 N.ar      1 <1>        -0.561500 
     19 C           0.102458   -3.638105    1.004400 C.ar      1 <1>        -0.156400 
     20 C          -0.146643   -2.282532    0.833745 C.ar      1 <1>        -0.159500 
     21 C          -1.425632   -1.848267    0.437688 C.ar      1 <1>         0.386600 
     22 C          -2.434382   -2.811564    0.226456 C.ar      1 <1>        -0.203600 
     23 C          -2.180138   -4.161744    0.398189 C.ar      1 <1>        -0.139900 
     24 C          -0.901360   -4.596565    0.790054 C.ar      1 <1>         0.132400 
     25 C           7.945797   -6.305566    1.391493 C.1       1 <1>         0.240800 
     26 N           8.623571   -7.246484    1.482962 N.1       1 <1>        -0.470300 
     27 O           2.246066    1.811655    0.717396 O.3       1 <1>        -0.558600 
     28 N          -1.785323   -0.514916    0.250867 N.pl3     1 <1>        -0.776100 
     29 C          -0.625551   -5.988996    0.966751 C.1       1 <1>         0.225400 
     30 N          -0.395661   -7.121261    1.110492 N.1       1 <1>        -0.484200 
     31 S           0.851802    4.629089    0.226160 S.2       1 <1>         0.288900 
     32 C          -0.772966    5.207652   -0.067691 C.ar      1 <1>        -0.341600 
     33 C          -1.713957    4.226907   -0.125227 C.ar      1 <1>        -0.095800 
     34 N           2.629904    0.084903   -1.702099 N.pl3     1 <1>         0.371900 
     35 O           2.639237   -0.831752   -2.521629 O.2       1 <1>        -0.382900 
     36 O           2.207330    1.217349   -1.926271 O.2       1 <1>        -0.389000 
     37 H           5.672888   -6.089706   -0.017373 H         1 <1>         0.172700 
     38 H           4.240086   -4.090136   -0.195940 H         1 <1>         0.159800 
     39 H           6.953060   -1.919950    2.349049 H         1 <1>         0.149000 
     40 H           8.368277   -3.931210    2.553512 H         1 <1>         0.166100 
     41 H           4.138984   -1.934504   -1.138432 H         1 <1>         0.196200 
     42 H           3.431831    0.976391    2.791945 H         1 <1>         0.167800 
     43 H           4.880186   -1.022827    3.006134 H         1 <1>         0.159600 
     44 H           1.091354   -3.963326    1.312392 H         1 <1>         0.151600 
     45 H           0.634925   -1.557570    1.003302 H         1 <1>         0.179500 
     46 H          -3.426489   -2.488574   -0.080252 H         1 <1>         0.139800 
     47 H          -2.967832   -4.888580    0.228466 H         1 <1>         0.159700 
     48 H          -2.760898   -0.343778    0.041584 H         1 <1>         0.350000 
     49 H          -0.930222    6.272153   -0.185829 H         1 <1>         0.189200 
     50 H          -2.769250    4.393949   -0.302511 H         1 <1>         0.163000 
@<TRIPOS>BOND
     1   10   42 1    
     2   11   43 1    
     3   10   11 ar   
     4    9   10 ar   
     5    4   39 1    
     6   11   12 ar   
     7    5   40 1    
     8    4    5 ar   
     9    3    4 ar   
    10    5    6 ar   
    11   19   44 1    
    12   20   45 1    
    13   27    9 1    
    14   13   27 1    
    15   20   19 ar   
    16   19   24 ar   
    17   21   20 ar   
    18   14   31 ar   
    19   32   31 ar   
    20    9    8 ar   
    21   13   14 ar   
    22   18   13 ar   
    23   15   14 ar   
    24   17   18 ar   
    25   29   30 3    
    26   32   49 1    
    27   33   32 ar   
    28   12    3 1    
    29   12    7 ar   
    30   24   29 1    
    31   24   23 ar   
    32   15   33 ar   
    33   16   15 ar   
    34   17   16 ar   
    35   28   17 1    
    36    3    2 ar   
    37   33   50 1    
    38   21   28 1    
    39   21   22 ar   
    40   28   48 1    
    41    6   25 1    
    42    6    1 ar   
    43   25   26 3    
    44   23   22 ar   
    45   23   47 1    
    46   22   46 1    
    47    2    1 ar   
    48    2   38 1    
    49    1   37 1    
    50    8    7 ar   
    51    8   34 1    
    52    7   41 1    
    53   34   36 2    
    54   34   35 2    
@<TRIPOS>SUBSTRUCTURE
     1 ****       30 TEMP              0 ****  ****    0 ROOT 
