#	Name:			SYL-2019-jmc-11603-3-15
#	Creating user name:	Administrator
#	Creation time:		Sun Jul 05 16:18:10 2020

#	Modifying user name:	Administrator
#	Modification time:	Sun Jul 05 16:19:33 2020

@<TRIPOS>MOLECULE
SYL-2019-jmc-11603-3-15
   51    55     1     0     0
SMALL
MULLIKEN_CHARGES
INVALID_CHARGES

@<TRIPOS>ATOM
      1 C           7.322756   -4.153438    1.621086 C.ar      1 <1>         0.363500 
      2 C           6.598027   -3.023309    1.277857 C.ar      1 <1>        -0.238600 
      3 C           5.265818   -2.891989    1.697956 C.ar      1 <1>         0.074000 
      4 C           4.700155   -3.923955    2.470218 C.ar      1 <1>        -0.175900 
      5 C           5.434983   -5.054206    2.807146 C.ar      1 <1>        -0.139100 
      6 C           6.769013   -5.189345    2.385382 C.ar      1 <1>         0.062000 
      7 C           4.314030   -1.181917    0.061696 C.ar      1 <1>         0.137400 
      8 C           3.540388   -0.031087   -0.135028 C.ar      1 <1>        -0.216300 
      9 C           2.938065    0.616852    0.936018 C.ar      1 <1>         0.371400 
     10 C           3.079494    0.145693    2.235709 C.ar      1 <1>        -0.154000 
     11 C           3.840783   -1.000761    2.441613 C.ar      1 <1>        -0.182200 
     12 C           4.469386   -1.673417    1.379593 C.ar      1 <1>         0.024800 
     13 C           0.909829    1.777287    0.494500 C.ar      1 <1>         0.564000 
     14 C           0.248458    2.991680    0.289195 C.ar      1 <1>        -0.231500 
     15 C          -1.145450    2.921528    0.072768 C.ar      1 <1>         0.325300 
     16 N          -1.818358    1.755619    0.060740 N.ar      1 <1>        -0.583200 
     17 C          -1.069521    0.668064    0.268483 C.ar      1 <1>         0.688600 
     18 N           0.263612    0.624936    0.484855 N.ar      1 <1>        -0.552800 
     19 C           0.163500   -3.651267    0.760168 C.ar      1 <1>        -0.161100 
     20 C          -0.093299   -2.294258    0.613701 C.ar      1 <1>        -0.164600 
     21 C          -1.414159   -1.848891    0.414143 C.ar      1 <1>         0.382100 
     22 C          -2.452683   -2.802828    0.365897 C.ar      1 <1>        -0.204700 
     23 C          -2.189719   -4.154167    0.513928 C.ar      1 <1>        -0.141000 
     24 C          -0.871165   -4.600034    0.715176 C.ar      1 <1>         0.132200 
     25 C           7.547821   -6.340178    2.721364 C.1       1 <1>         0.261800 
     26 N           8.169884   -7.281009    3.004699 N.1       1 <1>        -0.469100 
     27 O           2.246929    1.812307    0.704402 O.3       1 <1>        -0.566600 
     28 N          -1.783924   -0.515010    0.252991 N.pl3     1 <1>        -0.774400 
     29 C          -0.587304   -5.992931    0.873665 C.1       1 <1>         0.224300 
     30 N          -0.351534   -7.125475    1.005858 N.1       1 <1>        -0.484900 
     31 S           0.848355    4.630072    0.251719 S.2       1 <1>         0.279200 
     32 C          -0.773789    5.210417   -0.053989 C.ar      1 <1>        -0.343000 
     33 C          -1.712962    4.228783   -0.123783 C.ar      1 <1>        -0.096900 
     34 F           8.598102   -4.257509    1.218901 F         1 <1>        -0.268100 
     35 C           4.919670   -1.859619   -1.148592 C.3       1 <1>        -0.537600 
     36 H           7.091158   -2.245532    0.706168 H         1 <1>         0.161300 
     37 H           3.667689   -3.841337    2.794880 H         1 <1>         0.155500 
     38 H           4.985831   -5.848544    3.393969 H         1 <1>         0.174400 
     39 H           3.396552    0.363677   -1.136348 H         1 <1>         0.145000 
     40 H           2.608191    0.668181    3.061366 H         1 <1>         0.151800 
     41 H           3.972394   -1.375898    3.452319 H         1 <1>         0.150200 
     42 H           1.185669   -3.984966    0.910136 H         1 <1>         0.152700 
     43 H           0.713158   -1.577513    0.652434 H         1 <1>         0.196000 
     44 H          -3.476904   -2.471225    0.211541 H         1 <1>         0.137800 
     45 H          -3.001840   -4.872912    0.475509 H         1 <1>         0.158400 
     46 H          -2.768681   -0.343456    0.093219 H         1 <1>         0.348200 
     47 H          -0.931147    6.275589   -0.165715 H         1 <1>         0.188000 
     48 H          -2.767511    4.396198   -0.305523 H         1 <1>         0.161500 
     49 H           5.952872   -1.534241   -1.324546 H         1 <1>         0.171000 
     50 H           4.348729   -1.614181   -2.049146 H         1 <1>         0.167300 
     51 H           4.937656   -2.947955   -1.043365 H         1 <1>         0.175900 
@<TRIPOS>BOND
     1   10   40 1    
     2   11   41 1    
     3    5   38 1    
     4    4   37 1    
     5   10   11 ar   
     6    9   10 ar   
     7   11   12 ar   
     8    4    5 ar   
     9    5    6 ar   
    10    3    4 ar   
    11   25   26 3    
    12    6   25 1    
    13    6    1 ar   
    14   12    3 1    
    15    3    2 ar   
    16   31   32 ar   
    17   14   31 ar   
    18   32   47 1    
    19   32   33 ar   
    20   27    9 1    
    21    9    8 ar   
    22   13   27 1    
    23   12    7 ar   
    24   14   13 ar   
    25   14   15 ar   
    26   13   18 ar   
    27   33   15 ar   
    28   33   48 1    
    29   15   16 ar   
    30   18   17 ar   
    31   16   17 ar   
    32   17   28 1    
    33   28   46 1    
    34   28   21 1    
    35   21   20 ar   
    36   21   22 ar   
    37   20   43 1    
    38   22   44 1    
    39   20   19 ar   
    40   22   23 ar   
    41   19   42 1    
    42   19   24 ar   
    43   23   45 1    
    44   23   24 ar   
    45   24   29 1    
    46   29   30 3    
    47    1    2 ar   
    48    1   34 1    
    49    2   36 1    
    50    8    7 ar   
    51    8   39 1    
    52    7   35 1    
    53   35   51 1    
    54   35   49 1    
    55   35   50 1    
@<TRIPOS>SUBSTRUCTURE
     1 ****       31 TEMP              0 ****  ****    0 ROOT 
