#	Name:			SYL-2019-jmc-11603-3-21
#	Creating user name:	Administrator
#	Creation time:		Sun Jul 05 16:18:11 2020

#	Modifying user name:	Administrator
#	Modification time:	Sun Jul 05 16:19:33 2020

@<TRIPOS>MOLECULE
SYL-2019-jmc-11603-3-21
   54    58     1     0     0
SMALL
MULLIKEN_CHARGES
INVALID_CHARGES

@<TRIPOS>ATOM
      1 C           7.372772   -4.142819    1.634274 C.ar      1 <1>         0.178200 
      2 C           6.601185   -3.025151    1.313685 C.ar      1 <1>        -0.239500 
      3 C           5.260767   -2.895652    1.711782 C.ar      1 <1>         0.087600 
      4 C           4.685059   -3.931726    2.464752 C.ar      1 <1>        -0.185000 
      5 C           5.425254   -5.060103    2.796763 C.ar      1 <1>        -0.138500 
      6 C           6.762771   -5.172444    2.386610 C.ar      1 <1>         0.085700 
      7 C           4.312083   -1.186156    0.072309 C.ar      1 <1>         0.136900 
      8 C           3.540454   -0.034718   -0.128965 C.ar      1 <1>        -0.216900 
      9 C           2.938107    0.616600    0.939914 C.ar      1 <1>         0.369300 
     10 C           3.077955    0.149009    2.240772 C.ar      1 <1>        -0.154500 
     11 C           3.838424   -0.997784    2.450243 C.ar      1 <1>        -0.182400 
     12 C           4.467144   -1.675031    1.391314 C.ar      1 <1>         0.022700 
     13 C           0.910367    1.776959    0.494566 C.ar      1 <1>         0.564700 
     14 C           0.248345    2.991318    0.288843 C.ar      1 <1>        -0.232000 
     15 C          -1.145322    2.921546    0.072811 C.ar      1 <1>         0.325300 
     16 N          -1.818639    1.755691    0.060968 N.ar      1 <1>        -0.583800 
     17 C          -1.069520    0.668263    0.268649 C.ar      1 <1>         0.688200 
     18 N           0.263449    0.624912    0.485024 N.ar      1 <1>        -0.552100 
     19 C           0.163645   -3.651868    0.757458 C.ar      1 <1>        -0.161700 
     20 C          -0.093131   -2.294518    0.614276 C.ar      1 <1>        -0.165100 
     21 C          -1.413547   -1.849063    0.411594 C.ar      1 <1>         0.382000 
     22 C          -2.451659   -2.803223    0.357501 C.ar      1 <1>        -0.204900 
     23 C          -2.188598   -4.154877    0.502155 C.ar      1 <1>        -0.141000 
     24 C          -0.870487   -4.600831    0.706020 C.ar      1 <1>         0.131900 
     25 C           7.514121   -6.340898    2.740617 C.1       1 <1>         0.230100 
     26 N           8.133925   -7.284107    3.024830 N.1       1 <1>        -0.483200 
     27 O           2.246661    1.812636    0.704425 O.3       1 <1>        -0.566700 
     28 N          -1.783766   -0.514915    0.252650 N.pl3     1 <1>        -0.774400 
     29 C          -0.587642   -5.994573    0.859693 C.1       1 <1>         0.224400 
     30 N          -0.354494   -7.128144    0.987155 N.1       1 <1>        -0.485500 
     31 S           0.848585    4.629657    0.251567 S.2       1 <1>         0.278000 
     32 C          -0.773502    5.210528   -0.053773 C.ar      1 <1>        -0.343200 
     33 C          -1.712767    4.228995   -0.123525 C.ar      1 <1>        -0.097100 
     34 C           4.917071   -1.870247   -1.134638 C.3       1 <1>        -0.536000 
     35 C           8.813370   -4.247512    1.199448 C.3       1 <1>        -0.535000 
     36 H           7.066540   -2.217874    0.755533 H         1 <1>         0.138500 
     37 H           3.647906   -3.856593    2.778177 H         1 <1>         0.150100 
     38 H           4.974309   -5.864012    3.369757 H         1 <1>         0.166200 
     39 H           3.397510    0.357032   -1.131687 H         1 <1>         0.142600 
     40 H           2.605948    0.673883    3.064561 H         1 <1>         0.149500 
     41 H           3.968065   -1.371282    3.461880 H         1 <1>         0.148500 
     42 H           1.185605   -3.985492    0.909970 H         1 <1>         0.154600 
     43 H           0.713096   -1.577743    0.657879 H         1 <1>         0.197500 
     44 H          -3.475484   -2.471470    0.200906 H         1 <1>         0.137100 
     45 H          -3.000299   -4.873881    0.459123 H         1 <1>         0.157700 
     46 H          -2.768378   -0.343663    0.092173 H         1 <1>         0.347800 
     47 H          -0.930775    6.275719   -0.165442 H         1 <1>         0.187100 
     48 H          -2.767347    4.396532   -0.304964 H         1 <1>         0.160800 
     49 H           5.949736   -1.544702   -1.313225 H         1 <1>         0.167900 
     50 H           4.344632   -1.632056   -2.036334 H         1 <1>         0.164600 
     51 H           4.937590   -2.957657   -1.020507 H         1 <1>         0.175800 
     52 H           9.481958   -4.369609    2.059530 H         1 <1>         0.183800 
     53 H           9.123010   -3.354010    0.650241 H         1 <1>         0.159800 
     54 H           8.970835   -5.118620    0.552437 H         1 <1>         0.183700 
@<TRIPOS>BOND
     1   10   40 1    
     2   11   41 1    
     3    5   38 1    
     4    4   37 1    
     5   11   10 ar   
     6   10    9 ar   
     7   12   11 ar   
     8    5    4 ar   
     9    6    5 ar   
    10    3    4 ar   
    11   25   26 3    
    12    6   25 1    
    13    1    6 ar   
    14    3   12 1    
    15    2    3 ar   
    16   31   32 ar   
    17   14   31 ar   
    18   32   47 1    
    19    9   27 1    
    20    9    8 ar   
    21   33   32 ar   
    22   12    7 ar   
    23   27   13 1    
    24   13   14 ar   
    25   14   15 ar   
    26   13   18 ar   
    27   15   33 ar   
    28   33   48 1    
    29   15   16 ar   
    30   18   17 ar   
    31   17   16 ar   
    32   17   28 1    
    33   28   46 1    
    34   28   21 1    
    35   20   43 1    
    36   21   20 ar   
    37   21   22 ar   
    38   20   19 ar   
    39   22   44 1    
    40   35   52 1    
    41   22   23 ar   
    42   19   42 1    
    43   19   24 ar   
    44   23   24 ar   
    45   23   45 1    
    46   24   29 1    
    47   29   30 3    
    48    1    2 ar   
    49    1   35 1    
    50    2   36 1    
    51   35   53 1    
    52   35   54 1    
    53    8    7 ar   
    54    8   39 1    
    55    7   34 1    
    56   34   51 1    
    57   34   49 1    
    58   34   50 1    
@<TRIPOS>SUBSTRUCTURE
     1 ****       31 TEMP              0 ****  ****    0 ROOT 
