#	Name:			SYL-2019-BC-102974-3-23
#	Creating user name:	Administrator
#	Creation time:		Sun Jul 05 16:18:09 2020

#	Modifying user name:	Administrator
#	Modification time:	Sun Jul 05 16:19:33 2020

@<TRIPOS>MOLECULE
SYL-2019-BC-102974-3-23
   49    53     1     0     0
SMALL
MULLIKEN_CHARGES
INVALID_CHARGES

@<TRIPOS>ATOM
      1 C           5.963262   -5.158270    0.501454 C.ar      1 <1>        -0.138800 
      2 C           5.179843   -4.016870    0.376579 C.ar      1 <1>        -0.180300 
      3 C           5.381968   -2.903647    1.210643 C.ar      1 <1>         0.098600 
      4 C           6.398177   -2.969931    2.179604 C.ar      1 <1>        -0.178300 
      5 C           7.187713   -4.105462    2.313903 C.ar      1 <1>        -0.139500 
      6 C           6.976091   -5.210606    1.473258 C.ar      1 <1>         0.136500 
      7 C           4.152036   -1.223697   -0.189647 C.ar      1 <1>        -0.211700 
      8 C           3.361595   -0.073899   -0.328765 C.ar      1 <1>         0.152300 
      9 C           2.952964    0.621444    0.822051 C.ar      1 <1>         0.351500 
     10 C           3.338831    0.180558    2.081476 C.ar      1 <1>        -0.162500 
     11 C           4.125537   -0.962458    2.204087 C.ar      1 <1>        -0.176600 
     12 C           4.543662   -1.686247    1.073615 C.ar      1 <1>         0.093300 
     13 C           0.904203    1.779033    0.488640 C.ar      1 <1>         0.568900 
     14 C           0.249819    2.993661    0.287207 C.ar      1 <1>        -0.227200 
     15 C          -1.145932    2.921203    0.073095 C.ar      1 <1>         0.327100 
     16 N          -1.816029    1.754989    0.063590 N.ar      1 <1>        -0.581200 
     17 C          -1.069548    0.665972    0.270446 C.ar      1 <1>         0.696900 
     18 N           0.264902    0.625266    0.487879 N.ar      1 <1>        -0.555200 
     19 C           0.117372   -3.647472    0.923653 C.ar      1 <1>        -0.158000 
     20 C          -0.132209   -2.290201    0.767445 C.ar      1 <1>        -0.160500 
     21 C          -1.423940   -1.849659    0.422502 C.ar      1 <1>         0.385600 
     22 C          -2.443793   -2.808196    0.245757 C.ar      1 <1>        -0.204100 
     23 C          -2.188731   -4.160017    0.402693 C.ar      1 <1>        -0.140300 
     24 C          -0.897803   -4.601232    0.744393 C.ar      1 <1>         0.132100 
     25 C           7.791162   -6.382385    1.606231 C.1       1 <1>         0.240800 
     26 N           8.456189   -7.330544    1.715225 N.1       1 <1>        -0.470300 
     27 O           2.249340    1.811052    0.707398 O.3       1 <1>        -0.570300 
     28 N          -1.785181   -0.514766    0.249680 N.pl3     1 <1>        -0.776200 
     29 C          -0.621801   -5.995535    0.905786 C.1       1 <1>         0.225500 
     30 N          -0.392517   -7.129465    1.036528 N.1       1 <1>        -0.484000 
     31 S           0.848918    4.631222    0.239328 S.2       1 <1>         0.288600 
     32 C          -0.774977    5.208634   -0.062180 C.ar      1 <1>        -0.341500 
     33 C          -1.714422    4.227085   -0.126415 C.ar      1 <1>        -0.095300 
     34 C           2.990378    0.393204   -1.630551 C.1       1 <1>         0.246100 
     35 N           2.695534    0.764650   -2.692129 N.1       1 <1>        -0.471300 
     36 H           5.790584   -6.014849   -0.141765 H         1 <1>         0.171400 
     37 H           4.383798   -3.999621   -0.361761 H         1 <1>         0.155600 
     38 H           6.590841   -2.111972    2.816826 H         1 <1>         0.149700 
     39 H           7.975490   -4.141282    3.059309 H         1 <1>         0.166300 
     40 H           4.481423   -1.737995   -1.086144 H         1 <1>         0.173700 
     41 H           3.013532    0.734226    2.955900 H         1 <1>         0.165500 
     42 H           4.398154   -1.311970    3.195184 H         1 <1>         0.158800 
     43 H           1.116215   -3.977937    1.191418 H         1 <1>         0.151900 
     44 H           0.658443   -1.568784    0.907916 H         1 <1>         0.183800 
     45 H          -3.445766   -2.480244   -0.021167 H         1 <1>         0.139600 
     46 H          -2.985318   -4.883124    0.260603 H         1 <1>         0.159600 
     47 H          -2.762505   -0.342399    0.049747 H         1 <1>         0.350000 
     48 H          -0.932473    6.273293   -0.178671 H         1 <1>         0.189900 
     49 H          -2.769095    4.393405   -0.307915 H         1 <1>         0.163500 
@<TRIPOS>BOND
     1   10   41 1    
     2   11   42 1    
     3    4   38 1    
     4    5   39 1    
     5   10   11 ar   
     6    9   10 ar   
     7   11   12 ar   
     8    4    5 ar   
     9    3    4 ar   
    10    5    6 ar   
    11   19   43 1    
    12   20   44 1    
    13   27    9 1    
    14   13   27 1    
    15    9    8 ar   
    16   14   31 ar   
    17   32   31 ar   
    18   20   19 ar   
    19   19   24 ar   
    20   21   20 ar   
    21   13   14 ar   
    22   18   13 ar   
    23   15   14 ar   
    24   17   18 ar   
    25   12    3 1    
    26   12    7 ar   
    27   32   48 1    
    28   33   32 ar   
    29   15   33 ar   
    30   16   15 ar   
    31    3    2 ar   
    32   17   16 ar   
    33   28   17 1    
    34   33   49 1    
    35   29   30 3    
    36   24   29 1    
    37   24   23 ar   
    38   21   28 1    
    39   21   22 ar   
    40   28   47 1    
    41    6   25 1    
    42    6    1 ar   
    43   25   26 3    
    44   23   22 ar   
    45   23   46 1    
    46   22   45 1    
    47    2    1 ar   
    48    2   37 1    
    49    1   36 1    
    50    8    7 ar   
    51    8   34 1    
    52    7   40 1    
    53   34   35 3    
@<TRIPOS>SUBSTRUCTURE
     1 ****       30 TEMP              0 ****  ****    0 ROOT 
