#	Name:			SYL-2019-BC-102974-3-19
#	Creating user name:	Administrator
#	Creation time:		Sun Jul 05 16:18:09 2020

#	Modifying user name:	Administrator
#	Modification time:	Sun Jul 05 16:19:33 2020

@<TRIPOS>MOLECULE
SYL-2019-BC-102974-3-19
   48    52     1     0     0
SMALL
MULLIKEN_CHARGES
INVALID_CHARGES

@<TRIPOS>ATOM
      1 C           6.004446   -5.132646    0.612283 C.ar      1 <1>        -0.138800 
      2 C           5.233146   -3.987124    0.455511 C.ar      1 <1>        -0.181200 
      3 C           5.340217   -2.910612    1.353518 C.ar      1 <1>         0.098300 
      4 C           6.249173   -3.020061    2.420343 C.ar      1 <1>        -0.178300 
      5 C           7.025670   -4.160299    2.587596 C.ar      1 <1>        -0.139700 
      6 C           6.909656   -5.227780    1.681961 C.ar      1 <1>         0.135300 
      7 C           4.250212   -1.180750   -0.098735 C.ar      1 <1>        -0.197100 
      8 C           3.475132   -0.035867   -0.265729 C.ar      1 <1>        -0.094800 
      9 C           2.945823    0.620617    0.849821 C.ar      1 <1>         0.361400 
     10 C           3.206295    0.130389    2.126576 C.ar      1 <1>        -0.149300 
     11 C           3.981435   -1.013111    2.293127 C.ar      1 <1>        -0.186400 
     12 C           4.513965   -1.689384    1.182831 C.ar      1 <1>         0.100700 
     13 C           0.906739    1.777719    0.489512 C.ar      1 <1>         0.573800 
     14 C           0.249503    2.992415    0.286789 C.ar      1 <1>        -0.230500 
     15 C          -1.145709    2.921370    0.073576 C.ar      1 <1>         0.325700 
     16 N          -1.817005    1.755302    0.063263 N.ar      1 <1>        -0.582800 
     17 C          -1.069273    0.666694    0.270130 C.ar      1 <1>         0.692600 
     18 N           0.264456    0.624947    0.487009 N.ar      1 <1>        -0.552700 
     19 C           0.131833   -3.652254    0.858410 C.ar      1 <1>        -0.158700 
     20 C          -0.119011   -2.294210    0.710671 C.ar      1 <1>        -0.161900 
     21 C          -1.421835   -1.850002    0.415296 C.ar      1 <1>         0.383700 
     22 C          -2.450703   -2.805427    0.277549 C.ar      1 <1>        -0.204800 
     23 C          -2.194140   -4.157977    0.425692 C.ar      1 <1>        -0.140700 
     24 C          -0.892576   -4.602960    0.718798 C.ar      1 <1>         0.131600 
     25 C           7.712682   -6.403533    1.848197 C.1       1 <1>         0.239600 
     26 N           8.368177   -7.354949    1.983843 N.1       1 <1>        -0.472600 
     27 O           2.247915    1.812496    0.707434 O.3       1 <1>        -0.558600 
     28 N          -1.785052   -0.514533    0.250223 N.pl3     1 <1>        -0.775600 
     29 C          -0.616414   -5.998324    0.870640 C.1       1 <1>         0.225600 
     30 N          -0.389066   -7.133542    0.992993 N.1       1 <1>        -0.484700 
     31 S           0.849385    4.630358    0.241776 S.2       1 <1>         0.284400 
     32 C          -0.774080    5.209363   -0.058970 C.ar      1 <1>        -0.342700 
     33 C          -1.713692    4.227977   -0.124138 C.ar      1 <1>        -0.096500 
     34 CL          3.185452    0.587716   -1.871796 Cl        1 <1>         0.018600 
     35 H           5.904625   -5.960374   -0.082304 H         1 <1>         0.168500 
     36 H           4.519031   -3.937413   -0.360976 H         1 <1>         0.153600 
     37 H           6.368462   -2.191043    3.111216 H         1 <1>         0.149300 
     38 H           7.730400   -4.228566    3.409945 H         1 <1>         0.164400 
     39 H           4.672869   -1.657902   -0.976088 H         1 <1>         0.168300 
     40 H           2.788171    0.653367    2.980435 H         1 <1>         0.159900 
     41 H           4.151968   -1.398724    3.293327 H         1 <1>         0.152900 
     42 H           1.139470   -3.985145    1.087290 H         1 <1>         0.153800 
     43 H           0.679087   -1.575382    0.819567 H         1 <1>         0.190300 
     44 H          -3.461216   -2.474399    0.049483 H         1 <1>         0.138000 
     45 H          -2.997885   -4.878656    0.314902 H         1 <1>         0.158500 
     46 H          -2.765259   -0.341465    0.066129 H         1 <1>         0.348800 
     47 H          -0.931566    6.274342   -0.172938 H         1 <1>         0.188500 
     48 H          -2.768672    4.394953   -0.303877 H         1 <1>         0.162000 
@<TRIPOS>BOND
     1   10   40 1    
     2   11   41 1    
     3    4   37 1    
     4    5   38 1    
     5   10   11 ar   
     6    9   10 ar   
     7   11   12 ar   
     8    4    5 ar   
     9    3    4 ar   
    10    5    6 ar   
    11   27    9 1    
    12   13   27 1    
    13   14   31 ar   
    14   32   31 ar   
    15    9    8 ar   
    16   32   47 1    
    17   13   14 ar   
    18   18   13 ar   
    19   20   43 1    
    20   15   14 ar   
    21   33   32 ar   
    22   19   42 1    
    23   12    3 1    
    24   12    7 ar   
    25   17   18 ar   
    26    3    2 ar   
    27   15   33 ar   
    28   16   15 ar   
    29   33   48 1    
    30   20   19 ar   
    31   21   20 ar   
    32   19   24 ar   
    33   17   16 ar   
    34   28   17 1    
    35    6   25 1    
    36    6    1 ar   
    37   25   26 3    
    38   28   21 1    
    39   28   46 1    
    40   21   22 ar   
    41   24   29 1    
    42   24   23 ar   
    43   29   30 3    
    44   22   23 ar   
    45   22   44 1    
    46   23   45 1    
    47    2    1 ar   
    48    2   36 1    
    49    1   35 1    
    50    8    7 ar   
    51    8   34 1    
    52    7   39 1    
@<TRIPOS>SUBSTRUCTURE
     1 ****       40 TEMP              0 ****  ****    0 ROOT 
