#	Name:			SYL-2019-jmc-11603-3-7
#	Creating user name:	Administrator
#	Creation time:		Sun Jul 05 16:18:11 2020

#	Modifying user name:	Administrator
#	Modification time:	Sun Jul 05 16:19:33 2020

@<TRIPOS>MOLECULE
SYL-2019-jmc-11603-3-7
   48    52     1     0     0
SMALL
MULLIKEN_CHARGES
INVALID_CHARGES

@<TRIPOS>ATOM
      1 C           7.440691   -3.977114    1.791117 C.ar      1 <1>         0.365300 
      2 C           6.678527   -2.861707    1.485638 C.ar      1 <1>        -0.253700 
      3 C           5.348628   -2.778371    1.928640 C.ar      1 <1>         0.104600 
      4 C           4.824021   -3.846419    2.681265 C.ar      1 <1>        -0.182200 
      5 C           5.598031   -4.959511    2.982306 C.ar      1 <1>        -0.139300 
      6 C           6.930113   -5.045576    2.540790 C.ar      1 <1>         0.062200 
      7 C           4.639502   -0.941380    0.366111 C.ar      1 <1>        -0.184600 
      8 C           3.858934    0.170608    0.058306 C.ar      1 <1>        -0.159900 
      9 C           2.949255    0.644793    0.998159 C.ar      1 <1>         0.359300 
     10 C           2.814372    0.030787    2.241750 C.ar      1 <1>        -0.144500 
     11 C           3.594731   -1.083811    2.535541 C.ar      1 <1>        -0.188000 
     12 C           4.520092   -1.590783    1.605976 C.ar      1 <1>         0.092300 
     13 C           0.908701    1.776491    0.498407 C.ar      1 <1>         0.564500 
     14 C           0.248839    2.990835    0.291769 C.ar      1 <1>        -0.232800 
     15 C          -1.144757    2.921148    0.071644 C.ar      1 <1>         0.325900 
     16 N          -1.817460    1.755579    0.058968 N.ar      1 <1>        -0.582700 
     17 C          -1.069805    0.667207    0.268121 C.ar      1 <1>         0.689100 
     18 N           0.263468    0.623889    0.486725 N.ar      1 <1>        -0.553100 
     19 C           0.155286   -3.657225    0.744254 C.ar      1 <1>        -0.160000 
     20 C          -0.097471   -2.300291    0.589763 C.ar      1 <1>        -0.164400 
     21 C          -1.419970   -1.849096    0.418446 C.ar      1 <1>         0.382200 
     22 C          -2.464939   -2.796879    0.403951 C.ar      1 <1>        -0.204600 
     23 C          -2.206213   -4.148225    0.559296 C.ar      1 <1>        -0.140800 
     24 C          -0.885927   -4.599800    0.734474 C.ar      1 <1>         0.131900 
     25 C           7.747270   -6.178738    2.841822 C.1       1 <1>         0.261000 
     26 N           8.400749   -7.106453    3.096952 N.1       1 <1>        -0.469200 
     27 F           8.712154   -4.033896    1.368431 F         1 <1>        -0.268000 
     28 O           2.248377    1.815527    0.699808 O.3       1 <1>        -0.562200 
     29 N          -1.785790   -0.514266    0.252494 N.pl3     1 <1>        -0.774400 
     30 C          -0.607475   -5.992760    0.902795 C.1       1 <1>         0.225200 
     31 N          -0.377440   -7.125389    1.044011 N.1       1 <1>        -0.484400 
     32 S           0.849283    4.629174    0.256258 S.2       1 <1>         0.280300 
     33 C          -0.772133    5.209637   -0.053424 C.ar      1 <1>        -0.342700 
     34 C          -1.711495    4.228561   -0.125917 C.ar      1 <1>        -0.096700 
     35 H           7.141513   -2.054897    0.928362 H         1 <1>         0.161400 
     36 H           3.790536   -3.815547    3.010356 H         1 <1>         0.152900 
     37 H           5.179843   -5.781678    3.553584 H         1 <1>         0.173700 
     38 H           5.329590   -1.325658   -0.378973 H         1 <1>         0.150300 
     39 H           3.943953    0.668368   -0.902138 H         1 <1>         0.155600 
     40 H           2.113452    0.426619    2.968850 H         1 <1>         0.155300 
     41 H           3.506380   -1.547125    3.513438 H         1 <1>         0.150400 
     42 H           1.178877   -3.995660    0.872601 H         1 <1>         0.154100 
     43 H           0.714079   -1.588349    0.600438 H         1 <1>         0.194400 
     44 H          -3.490690   -2.460464    0.271706 H         1 <1>         0.138100 
     45 H          -3.023069   -4.862572    0.547717 H         1 <1>         0.158800 
     46 H          -2.770883   -0.340515    0.097221 H         1 <1>         0.348600 
     47 H          -0.928869    6.274961   -0.165450 H         1 <1>         0.188600 
     48 H          -2.765541    4.396372   -0.310397 H         1 <1>         0.162200 
@<TRIPOS>BOND
     1    8   39 1    
     2    7   38 1    
     3    7    8 ar   
     4    8    9 ar   
     5    1   27 1    
     6   12    7 ar   
     7    2   35 1    
     8    2    1 ar   
     9    3    2 ar   
    10    1    6 ar   
    11   19   42 1    
    12   30   31 3    
    13   20   19 ar   
    14   19   24 ar   
    15   20   43 1    
    16   24   30 1    
    17   21   20 ar   
    18   23   24 ar   
    19   29   21 1    
    20   21   22 ar   
    21   22   23 ar   
    22   23   45 1    
    23   29   46 1    
    24   17   29 1    
    25   22   44 1    
    26   18   17 ar   
    27   13   18 ar   
    28   17   16 ar   
    29   28   13 1    
    30    9   28 1    
    31   13   14 ar   
    32   15   16 ar   
    33    9   10 ar   
    34   14   15 ar   
    35   14   32 ar   
    36   15   34 ar   
    37   34   48 1    
    38   33   34 ar   
    39   32   33 ar   
    40   33   47 1    
    41   12    3 1    
    42   12   11 ar   
    43    3    4 ar   
    44    6   25 1    
    45    6    5 ar   
    46   25   26 3    
    47    4    5 ar   
    48    4   36 1    
    49    5   37 1    
    50   10   11 ar   
    51   10   40 1    
    52   11   41 1    
@<TRIPOS>SUBSTRUCTURE
     1 ****       31 TEMP              0 ****  ****    0 ROOT 
