#	Name:			SYL-2019-jmc-11603-3-23
#	Creating user name:	Administrator
#	Creation time:		Sun Jul 05 16:18:11 2020

#	Modifying user name:	Administrator
#	Modification time:	Sun Jul 05 16:19:33 2020

@<TRIPOS>MOLECULE
SYL-2019-jmc-11603-3-23
   54    58     1     0     0
SMALL
MULLIKEN_CHARGES
INVALID_CHARGES

@<TRIPOS>ATOM
      1 C           5.890570   -5.178538    1.192010 C.ar      1 <1>         0.179300 
      2 C           5.148086   -4.020079    0.961656 C.ar      1 <1>        -0.254700 
      3 C           5.284047   -2.865647    1.751561 C.ar      1 <1>         0.113700 
      4 C           6.205706   -2.888363    2.811365 C.ar      1 <1>        -0.186900 
      5 C           6.960904   -4.025597    3.065169 C.ar      1 <1>        -0.139700 
      6 C           6.811685   -5.168993    2.264536 C.ar      1 <1>         0.086600 
      7 C           4.194053   -1.256813    0.157248 C.ar      1 <1>        -0.260200 
      8 C           3.432712   -0.122937   -0.141251 C.ar      1 <1>         0.178200 
      9 C           2.941792    0.616181    0.941418 C.ar      1 <1>         0.290800 
     10 C           3.203650    0.261455    2.259639 C.ar      1 <1>        -0.151800 
     11 C           3.965531   -0.872805    2.526475 C.ar      1 <1>        -0.195300 
     12 C           4.471537   -1.654436    1.475919 C.ar      1 <1>         0.105200 
     13 C           0.910629    1.777383    0.494519 C.ar      1 <1>         0.570700 
     14 C           0.248499    2.991370    0.287448 C.ar      1 <1>        -0.233600 
     15 C          -1.145366    2.921547    0.072104 C.ar      1 <1>         0.325300 
     16 N          -1.818784    1.755708    0.062322 N.ar      1 <1>        -0.583500 
     17 C          -1.070233    0.668205    0.271187 C.ar      1 <1>         0.687400 
     18 N           0.263437    0.624898    0.486237 N.ar      1 <1>        -0.553700 
     19 C           0.142056   -3.641712    0.890135 C.ar      1 <1>        -0.160400 
     20 C          -0.116091   -2.284390    0.746124 C.ar      1 <1>        -0.165800 
     21 C          -1.413771   -1.848986    0.416134 C.ar      1 <1>         0.382000 
     22 C          -2.430480   -2.811809    0.243801 C.ar      1 <1>        -0.204900 
     23 C          -2.166646   -4.163350    0.388648 C.ar      1 <1>        -0.140900 
     24 C          -0.869620   -4.599800    0.713090 C.ar      1 <1>         0.131300 
     25 C           7.604624   -6.330089    2.542170 C.1       1 <1>         0.227900 
     26 N           8.249406   -7.273654    2.763009 N.1       1 <1>        -0.483700 
     27 O           2.246704    1.812313    0.704325 O.3       1 <1>        -0.565300 
     28 N          -1.783311   -0.515013    0.249793 N.pl3     1 <1>        -0.774500 
     29 C          -0.584489   -5.994096    0.857577 C.1       1 <1>         0.225500 
     30 N          -0.348718   -7.128621    0.972029 N.1       1 <1>        -0.485600 
     31 S           0.848906    4.629721    0.247682 S.2       1 <1>         0.278000 
     32 C          -0.773126    5.210117   -0.058228 C.ar      1 <1>        -0.342900 
     33 C          -1.712581    4.228692   -0.126235 C.ar      1 <1>        -0.097100 
     34 C           3.153017    0.292487   -1.563052 C.3       1 <1>        -0.539400 
     35 C           5.708562   -6.406239    0.335065 C.3       1 <1>        -0.535500 
     36 H           4.420501   -4.024516    0.154604 H         1 <1>         0.139900 
     37 H           6.351066   -2.002107    3.421349 H         1 <1>         0.144400 
     38 H           7.679584   -4.036694    3.878512 H         1 <1>         0.160100 
     39 H           4.607474   -1.831652   -0.667187 H         1 <1>         0.138800 
     40 H           2.804008    0.871168    3.063663 H         1 <1>         0.150100 
     41 H           4.145514   -1.165961    3.556179 H         1 <1>         0.145600 
     42 H           1.145511   -3.966723    1.146766 H         1 <1>         0.156700 
     43 H           0.672879   -1.560784    0.885970 H         1 <1>         0.196500 
     44 H          -3.437137   -2.487625   -0.009788 H         1 <1>         0.137300 
     45 H          -2.960810   -4.889841    0.250095 H         1 <1>         0.157900 
     46 H          -2.762963   -0.346437    0.058480 H         1 <1>         0.348100 
     47 H          -0.930312    6.275198   -0.171430 H         1 <1>         0.187800 
     48 H          -2.767257    4.396268   -0.307305 H         1 <1>         0.161400 
     49 H           2.092020    0.161711   -1.808338 H         1 <1>         0.178500 
     50 H           3.737572   -0.307366   -2.266219 H         1 <1>         0.161500 
     51 H           3.395984    1.348180   -1.726178 H         1 <1>         0.175200 
     52 H           6.651682   -6.705296   -0.136974 H         1 <1>         0.181600 
     53 H           4.971548   -6.229489   -0.453075 H         1 <1>         0.163100 
     54 H           5.369129   -7.260735    0.932151 H         1 <1>         0.188600 
@<TRIPOS>BOND
     1   11   41 1    
     2   10   40 1    
     3    5   38 1    
     4    4   37 1    
     5   10   11 ar   
     6   11   12 ar   
     7    9   10 ar   
     8    4    5 ar   
     9    5    6 ar   
    10    3    4 ar   
    11   25   26 3    
    12    6   25 1    
    13    6    1 ar   
    14   19   42 1    
    15   20   43 1    
    16   20   19 ar   
    17   19   24 ar   
    18   21   20 ar   
    19   12    3 1    
    20    3    2 ar   
    21   24   29 1    
    22   23   24 ar   
    23   12    7 ar   
    24   29   30 3    
    25   28   21 1    
    26   21   22 ar   
    27   28   46 1    
    28   17   28 1    
    29   17   16 ar   
    30   15   16 ar   
    31   18   17 ar   
    32   33   48 1    
    33   22   23 ar   
    34   23   45 1    
    35   22   44 1    
    36   15   33 ar   
    37   14   15 ar   
    38   13   18 ar   
    39   33   32 ar   
    40   13   14 ar   
    41   27   13 1    
    42   14   31 ar   
    43    9   27 1    
    44    9    8 ar   
    45   32   47 1    
    46   32   31 ar   
    47    1    2 ar   
    48    1   35 1    
    49    2   36 1    
    50   35   54 1    
    51    7    8 ar   
    52    7   39 1    
    53    8   34 1    
    54   35   53 1    
    55   35   52 1    
    56   34   49 1    
    57   34   51 1    
    58   34   50 1    
@<TRIPOS>SUBSTRUCTURE
     1 ****       26 TEMP              0 ****  ****    0 ROOT 
