#	Name:			SYL-2019-jmc-11603-3-18
#	Creating user name:	Administrator
#	Creation time:		Sun Jul 05 16:18:11 2020

#	Modifying user name:	Administrator
#	Modification time:	Sun Jul 05 16:19:33 2020

@<TRIPOS>MOLECULE
SYL-2019-jmc-11603-3-18
   51    55     1     0     0
SMALL
MULLIKEN_CHARGES
INVALID_CHARGES

@<TRIPOS>ATOM
      1 C           7.323748   -4.091408    2.183827 C.ar      1 <1>        -0.208900 
      2 C           6.670876   -2.909457    1.826967 C.ar      1 <1>         0.161800 
      3 C           5.262079   -2.856999    1.943253 C.ar      1 <1>         0.047200 
      4 C           4.565215   -3.977532    2.423873 C.ar      1 <1>        -0.173100 
      5 C           5.222718   -5.150463    2.774077 C.ar      1 <1>        -0.146400 
      6 C           6.617885   -5.210796    2.650012 C.ar      1 <1>         0.149400 
      7 C           4.465134   -1.065708    0.336549 C.ar      1 <1>         0.345100 
      8 C           3.714237    0.056585    0.009124 C.ar      1 <1>        -0.232000 
      9 C           2.933006    0.634489    1.003450 C.ar      1 <1>         0.365100 
     10 C           2.901452    0.112742    2.294427 C.ar      1 <1>        -0.142400 
     11 C           3.666786   -1.014786    2.583153 C.ar      1 <1>        -0.182100 
     12 C           4.478261   -1.632437    1.615889 C.ar      1 <1>        -0.028400 
     13 C           0.908024    1.777200    0.496428 C.ar      1 <1>         0.562800 
     14 C           0.248955    2.991691    0.289508 C.ar      1 <1>        -0.231100 
     15 C          -1.145250    2.921347    0.072401 C.ar      1 <1>         0.325700 
     16 N          -1.817567    1.755583    0.060695 N.ar      1 <1>        -0.582200 
     17 C          -1.069627    0.667101    0.267922 C.ar      1 <1>         0.689500 
     18 N           0.263892    0.624416    0.485657 N.ar      1 <1>        -0.552200 
     19 C           0.164095   -3.660581    0.691206 C.ar      1 <1>        -0.161900 
     20 C          -0.091465   -2.302004    0.556205 C.ar      1 <1>        -0.163600 
     21 C          -1.415978   -1.850478    0.403131 C.ar      1 <1>         0.382500 
     22 C          -2.460276   -2.798912    0.389406 C.ar      1 <1>        -0.204600 
     23 C          -2.198806   -4.151652    0.526939 C.ar      1 <1>        -0.140700 
     24 C          -0.876323   -4.603898    0.682006 C.ar      1 <1>         0.133200 
     25 C           7.327821   -6.404402    3.008058 C.1       1 <1>         0.237200 
     26 N           7.907364   -7.369896    3.300090 N.1       1 <1>        -0.476600 
     27 O           2.248017    1.813527    0.702704 O.3       1 <1>        -0.565400 
     28 N          -1.784870   -0.514455    0.252620 N.pl3     1 <1>        -0.774300 
     29 C          -0.594876   -5.998522    0.830820 C.1       1 <1>         0.224400 
     30 N          -0.362541   -7.132464    0.956289 N.1       1 <1>        -0.483600 
     31 S           0.848394    4.630319    0.253630 S.2       1 <1>         0.280500 
     32 C          -0.774001    5.210039   -0.052777 C.ar      1 <1>        -0.342600 
     33 C          -1.712958    4.228528   -0.123572 C.ar      1 <1>        -0.096400 
     34 C           7.486623   -1.728098    1.356568 C.3       1 <1>        -0.544000 
     35 F           5.199889   -1.634827   -0.642515 F         1 <1>        -0.284900 
     36 H           8.405670   -4.146028    2.109392 H         1 <1>         0.154900 
     37 H           3.483578   -3.926736    2.511392 H         1 <1>         0.152300 
     38 H           4.668983   -6.010867    3.134540 H         1 <1>         0.167100 
     39 H           3.734974    0.457284   -0.997586 H         1 <1>         0.167500 
     40 H           2.291177    0.585726    3.055763 H         1 <1>         0.154700 
     41 H           3.655461   -1.425438    3.588286 H         1 <1>         0.157300 
     42 H           1.189510   -4.000406    0.800548 H         1 <1>         0.156900 
     43 H           0.719073   -1.588847    0.568295 H         1 <1>         0.191600 
     44 H          -3.487522   -2.462022    0.271328 H         1 <1>         0.138300 
     45 H          -3.015088   -4.866628    0.516449 H         1 <1>         0.159000 
     46 H          -2.770665   -0.340969    0.101336 H         1 <1>         0.348800 
     47 H          -0.931328    6.275327   -0.164370 H         1 <1>         0.188900 
     48 H          -2.767474    4.395797   -0.305758 H         1 <1>         0.162500 
     49 H           7.142412   -0.794814    1.815019 H         1 <1>         0.166500 
     50 H           7.413040   -1.602087    0.271245 H         1 <1>         0.184600 
     51 H           8.542552   -1.860622    1.609003 H         1 <1>         0.162200 
@<TRIPOS>BOND
     1   11   41 1    
     2   10   40 1    
     3   11   10 ar   
     4   12   11 ar   
     5   10    9 ar   
     6    5   38 1    
     7    4   37 1    
     8    4    5 ar   
     9    6    5 ar   
    10    3    4 ar   
    11   25   26 3    
    12    6   25 1    
    13    1    6 ar   
    14   32   47 1    
    15   33   32 ar   
    16   31   32 ar   
    17   33   48 1    
    18    3   12 1    
    19    2    3 ar   
    20   15   33 ar   
    21   14   31 ar   
    22   12    7 ar   
    23   14   15 ar   
    24   15   16 ar   
    25   13   14 ar   
    26    9   27 1    
    27    9    8 ar   
    28   17   16 ar   
    29   27   13 1    
    30   13   18 ar   
    31   22   44 1    
    32   18   17 ar   
    33   17   28 1    
    34   28   46 1    
    35   34   49 1    
    36   28   21 1    
    37   21   22 ar   
    38   22   23 ar   
    39    2    1 ar   
    40    1   36 1    
    41   23   45 1    
    42   21   20 ar   
    43   23   24 ar   
    44    2   34 1    
    45   20   43 1    
    46   20   19 ar   
    47   24   19 ar   
    48   24   29 1    
    49   19   42 1    
    50   29   30 3    
    51   34   51 1    
    52   34   50 1    
    53    7    8 ar   
    54    7   35 1    
    55    8   39 1    
@<TRIPOS>SUBSTRUCTURE
     1 ****       44 TEMP              0 ****  ****    0 ROOT 
