#	Name:			SYL-2019-BC-102974-3-20
#	Creating user name:	Administrator
#	Creation time:		Sun Jul 05 16:18:09 2020

#	Modifying user name:	Administrator
#	Modification time:	Sun Jul 05 16:19:33 2020

@<TRIPOS>MOLECULE
SYL-2019-BC-102974-3-20
   48    52     1     0     0
SMALL
MULLIKEN_CHARGES
INVALID_CHARGES

@<TRIPOS>ATOM
      1 C           7.518768   -3.792586    2.493332 C.ar      1 <1>        -0.141900 
      2 C           6.771599   -2.705641    2.055858 C.ar      1 <1>        -0.154200 
      3 C           5.367679   -2.740816    2.078598 C.ar      1 <1>         0.079500 
      4 C           4.731792   -3.898040    2.557074 C.ar      1 <1>        -0.175400 
      5 C           5.468916   -4.994113    2.993067 C.ar      1 <1>        -0.140600 
      6 C           6.871597   -4.947368    2.964229 C.ar      1 <1>         0.134900 
      7 C           4.666404   -0.914956    0.426226 C.ar      1 <1>        -0.129600 
      8 C           3.874769    0.186029    0.098172 C.ar      1 <1>        -0.162900 
      9 C           2.947594    0.653370    1.021382 C.ar      1 <1>         0.365500 
     10 C           2.795696    0.040465    2.262464 C.ar      1 <1>        -0.139200 
     11 C           3.591792   -1.058865    2.564185 C.ar      1 <1>        -0.178500 
     12 C           4.550932   -1.566355    1.667574 C.ar      1 <1>         0.077500 
     13 C           0.907561    1.776450    0.498308 C.ar      1 <1>         0.563800 
     14 C           0.249260    2.990935    0.291233 C.ar      1 <1>        -0.232200 
     15 C          -1.144751    2.921109    0.071854 C.ar      1 <1>         0.326100 
     16 N          -1.816829    1.755497    0.059569 N.ar      1 <1>        -0.582000 
     17 C          -1.069808    0.666610    0.267616 C.ar      1 <1>         0.689800 
     18 N           0.263921    0.623371    0.486922 N.ar      1 <1>        -0.553100 
     19 C           0.158391   -3.664730    0.673179 C.ar      1 <1>        -0.160700 
     20 C          -0.094885   -2.305994    0.536647 C.ar      1 <1>        -0.163700 
     21 C          -1.420107   -1.850682    0.402443 C.ar      1 <1>         0.382600 
     22 C          -2.467447   -2.795728    0.407093 C.ar      1 <1>        -0.204500 
     23 C          -2.208286   -4.148811    0.545530 C.ar      1 <1>        -0.140500 
     24 C          -0.885114   -4.604688    0.683262 C.ar      1 <1>         0.132900 
     25 C           7.641316   -6.069211    3.416836 C.1       1 <1>         0.239900 
     26 N           8.268714   -6.976508    3.786345 N.1       1 <1>        -0.474000 
     27 O           2.248811    1.816339    0.700082 O.3       1 <1>        -0.561700 
     28 N          -1.786589   -0.513900    0.252352 N.pl3     1 <1>        -0.774300 
     29 C          -0.605774   -5.999538    0.833953 C.1       1 <1>         0.224900 
     30 N          -0.374812   -7.133554    0.961383 N.1       1 <1>        -0.483500 
     31 S           0.849608    4.629121    0.255562 S.2       1 <1>         0.282000 
     32 C          -0.772100    5.209395   -0.053341 C.ar      1 <1>        -0.342500 
     33 C          -1.711647    4.228457   -0.125228 C.ar      1 <1>        -0.096400 
     34 CL          5.778557   -1.488981   -0.808795 Cl        1 <1>         0.008400 
     35 H           8.603118   -3.753386    2.479016 H         1 <1>         0.164000 
     36 H           7.281781   -1.814774    1.705488 H         1 <1>         0.158800 
     37 H           3.646710   -3.944552    2.573564 H         1 <1>         0.153400 
     38 H           4.966371   -5.886762    3.351024 H         1 <1>         0.169100 
     39 H           3.973535    0.671835   -0.865279 H         1 <1>         0.174500 
     40 H           2.074137    0.420984    2.976673 H         1 <1>         0.158600 
     41 H           3.493331   -1.534166    3.535475 H         1 <1>         0.158500 
     42 H           1.184213   -4.007303    0.768799 H         1 <1>         0.156100 
     43 H           0.718264   -1.595774    0.532369 H         1 <1>         0.191400 
     44 H          -3.495336   -2.455811    0.303523 H         1 <1>         0.138600 
     45 H          -3.026894   -4.861108    0.549603 H         1 <1>         0.159300 
     46 H          -2.772369   -0.338504    0.104066 H         1 <1>         0.349100 
     47 H          -0.928824    6.274692   -0.165540 H         1 <1>         0.189400 
     48 H          -2.765654    4.396295   -0.309280 H         1 <1>         0.162900 
@<TRIPOS>BOND
     1   11   41 1    
     2   10   40 1    
     3   10   11 ar   
     4   11   12 ar   
     5    9   10 ar   
     6    5   38 1    
     7    4   37 1    
     8   25   26 3    
     9    4    5 ar   
    10    5    6 ar   
    11    6   25 1    
    12    3    4 ar   
    13    1    6 ar   
    14   32   47 1    
    15   31   32 ar   
    16   33   32 ar   
    17   33   48 1    
    18   14   31 ar   
    19   15   33 ar   
    20   12    3 1    
    21    3    2 ar   
    22   15   14 ar   
    23   16   15 ar   
    24   13   14 ar   
    25    2    1 ar   
    26    1   35 1    
    27   12    7 ar   
    28   27    9 1    
    29    9    8 ar   
    30   17   16 ar   
    31   13   27 1    
    32   18   13 ar   
    33   17   18 ar   
    34   28   17 1    
    35   22   44 1    
    36    2   36 1    
    37   28   46 1    
    38   21   28 1    
    39   22   21 ar   
    40   22   23 ar   
    41   21   20 ar   
    42   23   45 1    
    43   23   24 ar   
    44   20   43 1    
    45   20   19 ar   
    46   24   19 ar   
    47   24   29 1    
    48   19   42 1    
    49   29   30 3    
    50    7    8 ar   
    51    7   34 1    
    52    8   39 1    
@<TRIPOS>SUBSTRUCTURE
     1 ****       44 TEMP              0 ****  ****    0 ROOT 
