#	Name:			SYL-2019-jmc-11603-3-22
#	Creating user name:	Administrator
#	Creation time:		Sun Jul 05 16:18:11 2020

#	Modifying user name:	Administrator
#	Modification time:	Sun Jul 05 16:19:33 2020

@<TRIPOS>MOLECULE
SYL-2019-jmc-11603-3-22
   54    58     1     0     0
SMALL
MULLIKEN_CHARGES
INVALID_CHARGES

@<TRIPOS>ATOM
      1 C           7.238093   -4.259599    1.670527 C.ar      1 <1>        -0.206900 
      2 C           6.577470   -3.076755    1.328979 C.ar      1 <1>         0.146400 
      3 C           5.260083   -2.875210    1.805671 C.ar      1 <1>         0.027800 
      4 C           4.665173   -3.859504    2.613738 C.ar      1 <1>        -0.176100 
      5 C           5.326818   -5.035319    2.943978 C.ar      1 <1>        -0.144200 
      6 C           6.628545   -5.241685    2.465107 C.ar      1 <1>         0.147400 
      7 C           4.231953   -1.234772    0.182350 C.ar      1 <1>        -0.249200 
      8 C           3.466297   -0.105163   -0.124577 C.ar      1 <1>         0.175500 
      9 C           2.940903    0.618338    0.952384 C.ar      1 <1>         0.290500 
     10 C           3.165192    0.249243    2.273121 C.ar      1 <1>        -0.148900 
     11 C           3.926314   -0.884988    2.547726 C.ar      1 <1>        -0.188300 
     12 C           4.475375   -1.643709    1.503070 C.ar      1 <1>         0.077900 
     13 C           0.910635    1.777426    0.494575 C.ar      1 <1>         0.570500 
     14 C           0.248411    2.991319    0.288098 C.ar      1 <1>        -0.233400 
     15 C          -1.145377    2.921375    0.072267 C.ar      1 <1>         0.325300 
     16 N          -1.818353    1.755550    0.062110 N.ar      1 <1>        -0.583600 
     17 C          -1.069696    0.667765    0.269720 C.ar      1 <1>         0.687800 
     18 N           0.264086    0.624369    0.484294 N.ar      1 <1>        -0.554000 
     19 C           0.143928   -3.652236    0.825374 C.ar      1 <1>        -0.160900 
     20 C          -0.108110   -2.294424    0.675711 C.ar      1 <1>        -0.166400 
     21 C          -1.419077   -1.849299    0.419615 C.ar      1 <1>         0.382200 
     22 C          -2.453771   -2.803304    0.321327 C.ar      1 <1>        -0.205000 
     23 C          -2.196134   -4.155114    0.473416 C.ar      1 <1>        -0.140800 
     24 C          -0.887035   -4.601101    0.728650 C.ar      1 <1>         0.131800 
     25 C           7.342734   -6.441001    2.793470 C.1       1 <1>         0.236100 
     26 N           7.926151   -7.411580    3.060223 N.1       1 <1>        -0.477800 
     27 O           2.246453    1.813045    0.705111 O.3       1 <1>        -0.565300 
     28 N          -1.784585   -0.514439    0.251762 N.pl3     1 <1>        -0.774900 
     29 C          -0.611111   -5.995576    0.889138 C.1       1 <1>         0.225400 
     30 N          -0.385450   -7.130008    1.021894 N.1       1 <1>        -0.484400 
     31 S           0.848661    4.629611    0.248932 S.2       1 <1>         0.277600 
     32 C          -0.773379    5.209971   -0.057810 C.ar      1 <1>        -0.342900 
     33 C          -1.712715    4.228480   -0.125976 C.ar      1 <1>        -0.096900 
     34 C           3.204435    0.312215   -1.549552 C.3       1 <1>        -0.538100 
     35 C           7.311134   -2.049080    0.495070 C.3       1 <1>        -0.534700 
     36 H           8.254247   -4.422095    1.323384 H         1 <1>         0.153100 
     37 H           3.653669   -3.698469    2.975805 H         1 <1>         0.150000 
     38 H           4.846913   -5.788377    3.560099 H         1 <1>         0.164200 
     39 H           4.632384   -1.824050   -0.637915 H         1 <1>         0.139000 
     40 H           2.749090    0.853759    3.072781 H         1 <1>         0.150400 
     41 H           4.111309   -1.173393    3.578263 H         1 <1>         0.147100 
     42 H           1.158713   -3.985799    1.019443 H         1 <1>         0.156300 
     43 H           0.695153   -1.577418    0.756352 H         1 <1>         0.196300 
     44 H          -3.470435   -2.471571    0.123164 H         1 <1>         0.137400 
     45 H          -3.004945   -4.874480    0.395569 H         1 <1>         0.158200 
     46 H          -2.767066   -0.342159    0.079633 H         1 <1>         0.348200 
     47 H          -0.930498    6.275115   -0.170999 H         1 <1>         0.187800 
     48 H          -2.767362    4.395800   -0.307474 H         1 <1>         0.161500 
     49 H           2.145803    0.189294   -1.807911 H         1 <1>         0.178900 
     50 H           3.792631   -0.291439   -2.246314 H         1 <1>         0.160800 
     51 H           3.456589    1.366397   -1.709019 H         1 <1>         0.175000 
     52 H           7.075618   -1.028280    0.809614 H         1 <1>         0.174000 
     53 H           7.054235   -2.125892   -0.568766 H         1 <1>         0.168500 
     54 H           8.393008   -2.192024    0.576427 H         1 <1>         0.164200 
@<TRIPOS>BOND
     1   11   41 1    
     2   10   40 1    
     3    5   38 1    
     4    4   37 1    
     5   10   11 ar   
     6   11   12 ar   
     7    9   10 ar   
     8    4    5 ar   
     9    5    6 ar   
    10    3    4 ar   
    11   25   26 3    
    12    6   25 1    
    13   32   47 1    
    14    6    1 ar   
    15   31   32 ar   
    16   33   32 ar   
    17   14   31 ar   
    18   33   48 1    
    19   15   33 ar   
    20   12    3 1    
    21    3    2 ar   
    22   15   14 ar   
    23   13   14 ar   
    24   12    7 ar   
    25   27    9 1    
    26   13   27 1    
    27   16   15 ar   
    28    9    8 ar   
    29   18   13 ar   
    30   17   16 ar   
    31   17   18 ar   
    32   28   17 1    
    33   20   43 1    
    34   28   46 1    
    35   21   28 1    
    36   20   21 ar   
    37   20   19 ar   
    38   21   22 ar   
    39   19   42 1    
    40   19   24 ar   
    41   22   44 1    
    42   22   23 ar   
    43   24   23 ar   
    44   24   29 1    
    45   23   45 1    
    46   29   30 3    
    47    1    2 ar   
    48    1   36 1    
    49    2   35 1    
    50   35   52 1    
    51    7    8 ar   
    52    7   39 1    
    53    8   34 1    
    54   35   54 1    
    55   35   53 1    
    56   34   51 1    
    57   34   49 1    
    58   34   50 1    
@<TRIPOS>SUBSTRUCTURE
     1 ****       43 TEMP              0 ****  ****    0 ROOT 
