#	Name:			WHQ-2014-SQER-761-52
#	Creating user name:	Administrator
#	Creation time:		Sun Jul 05 16:18:28 2020

#	Modifying user name:	Administrator
#	Modification time:	Sun Jul 05 16:19:33 2020

@<TRIPOS>MOLECULE
WHQ-2014-SQER-761-52
   41    44     1     0     0
SMALL
MULLIKEN_CHARGES
INVALID_CHARGES
Gaussian 16 #p B3LYP/6-31G* opt
@<TRIPOS>ATOM
      1 N          -0.293807   -7.115140    1.026566 N.1       1 <1>        -0.483900 
      2 C          -0.527641   -5.982129    0.896461 C.1       1 <1>         0.228000 
      3 C          -0.817080   -4.589903    0.736820 C.ar      1 <1>         0.131900 
      4 C          -2.135354   -4.157355    0.507961 C.ar      1 <1>        -0.140400 
      5 C          -2.407713   -2.808291    0.355452 C.ar      1 <1>        -0.204900 
      6 C          -1.378030   -1.847949    0.425942 C.ar      1 <1>         0.381100 
      7 N          -1.756464   -0.514064    0.259353 N.pl3     1 <1>        -0.764600 
      8 C          -1.044647    0.663496    0.273004 C.ar      1 <1>         0.697800 
      9 N          -1.808259    1.756968    0.064034 N.ar      1 <1>        -0.491000 
     10 C          -1.153415    2.916663    0.073516 C.ar      1 <1>         0.067800 
     11 C           0.220239    3.031377    0.280079 C.ar      1 <1>        -0.214300 
     12 C           0.887324    1.820303    0.479576 C.ar      1 <1>         0.548100 
     13 O           2.229661    1.718088    0.717015 O.3       1 <1>        -0.528600 
     14 C           3.028620    2.843802    0.677935 C.ar      1 <1>         0.306300 
     15 C           3.450608    3.401252    1.862019 C.ar      1 <1>        -0.235800 
     16 C           4.348664    4.497630    1.871610 C.ar      1 <1>         0.146800 
     17 C           4.801926    5.094828    3.079029 C.ar      1 <1>        -0.192900 
     18 C           5.669458    6.158622    3.058213 C.ar      1 <1>        -0.140800 
     19 C           6.130031    6.679705    1.813690 C.ar      1 <1>         0.132600 
     20 C           7.034957    7.791927    1.803330 C.1       1 <1>         0.239700 
     21 N           7.767981    8.695248    1.802725 N.1       1 <1>        -0.470900 
     22 C           5.707514    6.117756    0.620108 C.ar      1 <1>        -0.211200 
     23 C           4.812068    5.020423    0.621204 C.ar      1 <1>         0.150600 
     24 C           4.364958    4.423281   -0.587552 C.ar      1 <1>        -0.237300 
     25 C           3.496801    3.358572   -0.562969 C.ar      1 <1>         0.066800 
     26 BR          2.917106    2.557056   -2.183399 Br        1 <1>        -0.079000 
     27 N           0.277137    0.643578    0.481361 N.ar      1 <1>        -0.532200 
     28 C          -0.057694   -2.277980    0.654067 C.ar      1 <1>        -0.162200 
     29 C           0.208743   -3.633263    0.806209 C.ar      1 <1>        -0.153700 
     30 H          -2.939173   -4.884246    0.451292 H         1 <1>         0.158800 
     31 H          -3.431056   -2.485081    0.179095 H         1 <1>         0.138200 
     32 H          -2.741118   -0.347392    0.093608 H         1 <1>         0.349700 
     33 H          -1.756859    3.807310   -0.092221 H         1 <1>         0.160200 
     34 H           0.721890    3.989466    0.284875 H         1 <1>         0.159600 
     35 H           3.091092    2.979678    2.795832 H         1 <1>         0.164000 
     36 H           4.450901    4.696329    4.026899 H         1 <1>         0.154500 
     37 H           6.013911    6.613125    3.981005 H         1 <1>         0.166400 
     38 H           6.062854    6.517903   -0.324489 H         1 <1>         0.168400 
     39 H           4.718254    4.809116   -1.538162 H         1 <1>         0.171300 
     40 H           0.739226   -1.550908    0.709058 H         1 <1>         0.195200 
     41 H           1.229316   -3.958623    0.981568 H         1 <1>         0.159700 
@<TRIPOS>BOND
     1   25   26 1    
     2   24   39 1    
     3    2    1 3    
     4   29   41 1    
     5   22   38 1    
     6    3    2 1    
     7   25   24 ar   
     8   24   23 ar   
     9   14   25 ar   
    10   29    3 ar   
    11   28   29 ar   
    12    4    3 ar   
    13   23   22 ar   
    14   22   19 ar   
    15   16   23 ar   
    16   28   40 1    
    17    6   28 ar   
    18   13   14 1    
    19   14   15 ar   
    20   12   13 1    
    21   20   21 3    
    22   19   20 1    
    23   18   19 ar   
    24    4   30 1    
    25    5    4 ar   
    26   15   16 ar   
    27   16   17 ar   
    28   27   12 ar   
    29    8   27 ar   
    30    6    5 ar   
    31    7    6 1    
    32   15   35 1    
    33   12   11 ar   
    34    5   31 1    
    35   17   18 ar   
    36   18   37 1    
    37    7    8 1    
    38    7   32 1    
    39    8    9 ar   
    40   17   36 1    
    41   11   34 1    
    42   11   10 ar   
    43    9   10 ar   
    44   10   33 1    
@<TRIPOS>SUBSTRUCTURE
     1 ****       41 TEMP              0 ****  ****    0 ROOT 
