#	Name:			WHQ-2014-SQER-761-13
#	Creating user name:	Administrator
#	Creation time:		Sun Jul 05 16:18:22 2020

#	Modifying user name:	Administrator
#	Modification time:	Sun Jul 05 16:19:33 2020

@<TRIPOS>MOLECULE
WHQ-2014-SQER-761-13
   40    43     1     0     0
SMALL
MULLIKEN_CHARGES
INVALID_CHARGES
Gaussian 16 #p B3LYP/6-31G* opt
@<TRIPOS>ATOM
      1 N          -7.974821   -2.978302   -0.562385 N.1       1 <1>        -0.485900 
      2 C          -6.901786   -2.549060   -0.421959 C.1       1 <1>         0.226800 
      3 C          -5.582517   -2.022832   -0.249180 C.ar      1 <1>         0.130800 
      4 C          -4.497719   -2.883177   -0.002792 C.ar      1 <1>        -0.140600 
      5 C          -3.223770   -2.366467    0.163414 C.ar      1 <1>        -0.205800 
      6 C          -2.988229   -0.978085    0.089905 C.ar      1 <1>         0.382700 
      7 N          -1.670583   -0.557388    0.270791 N.pl3     1 <1>        -0.766000 
      8 C          -1.082059    0.690117    0.265500 C.ar      1 <1>         0.698000 
      9 N          -1.823501    1.786397    0.057396 N.ar      1 <1>        -0.484900 
     10 C          -1.142338    2.940036    0.070178 C.ar      1 <1>         0.067600 
     11 C           0.224769    3.032724    0.282468 C.ar      1 <1>        -0.221600 
     12 C           0.881339    1.807183    0.492538 C.ar      1 <1>         0.535700 
     13 O           2.217767    1.691317    0.703692 O.3       1 <1>        -0.531100 
     14 C           2.996986    2.837241    0.861734 C.ar      1 <1>         0.316300 
     15 C           2.997540    3.501088    2.111724 C.ar      1 <1>        -0.152900 
     16 C           3.824245    4.584480    2.297841 C.ar      1 <1>        -0.203800 
     17 C           4.680236    5.043647    1.259728 C.ar      1 <1>         0.145600 
     18 C           5.544219    6.158542    1.427745 C.ar      1 <1>        -0.192400 
     19 C           6.364048    6.575324    0.403435 C.ar      1 <1>        -0.133400 
     20 C           6.357712    5.893583   -0.838263 C.ar      1 <1>        -0.134800 
     21 C           5.532996    4.808752   -1.033822 C.ar      1 <1>        -0.188300 
     22 C           4.674218    4.354075    0.002541 C.ar      1 <1>         0.127600 
     23 C           3.809055    3.240261   -0.169422 C.ar      1 <1>        -0.232500 
     24 N           0.246181    0.646025    0.485373 N.ar      1 <1>        -0.543500 
     25 C          -4.072454   -0.115183   -0.156494 C.ar      1 <1>        -0.159500 
     26 C          -5.348107   -0.639790   -0.322372 C.ar      1 <1>        -0.153500 
     27 H          -4.661956   -3.954203    0.056710 H         1 <1>         0.157300 
     28 H          -2.392635   -3.041655    0.353373 H         1 <1>         0.137400 
     29 H          -0.990079   -1.287431    0.439737 H         1 <1>         0.349200 
     30 H          -1.731463    3.838917   -0.102177 H         1 <1>         0.156200 
     31 H           0.744291    3.981141    0.278905 H         1 <1>         0.164200 
     32 H           2.353396    3.136509    2.905706 H         1 <1>         0.150100 
     33 H           3.835824    5.100844    3.254341 H         1 <1>         0.142800 
     34 H           5.547113    6.678441    2.382756 H         1 <1>         0.135700 
     35 H           7.020580    7.429386    0.544043 H         1 <1>         0.136700 
     36 H           7.009734    6.231424   -1.639045 H         1 <1>         0.137400 
     37 H           5.528144    4.284314   -1.986138 H         1 <1>         0.137200 
     38 H           3.793184    2.698781   -1.110703 H         1 <1>         0.148500 
     39 H          -3.899350    0.949663   -0.214056 H         1 <1>         0.189300 
     40 H          -6.179733    0.031452   -0.512148 H         1 <1>         0.157200 
@<TRIPOS>BOND
     1   16   33 1    
     2   15   32 1    
     3   15   16 ar   
     4   16   17 ar   
     5   18   34 1    
     6   14   15 ar   
     7   17   18 ar   
     8   18   19 ar   
     9   17   22 ar   
    10   13   14 1    
    11   14   23 ar   
    12    5   28 1    
    13   12   13 1    
    14    7   29 1    
    15   24   12 ar   
    16    8   24 ar   
    17   12   11 ar   
    18    4   27 1    
    19    5    4 ar   
    20    6    5 ar   
    21    7    8 1    
    22    7    6 1    
    23    8    9 ar   
    24    4    3 ar   
    25    6   25 ar   
    26   11   31 1    
    27   11   10 ar   
    28    9   10 ar   
    29    3    2 1    
    30    3   26 ar   
    31   25   26 ar   
    32   25   39 1    
    33   10   30 1    
    34    2    1 3    
    35   19   35 1    
    36   26   40 1    
    37   19   20 ar   
    38   22   23 ar   
    39   22   21 ar   
    40   23   38 1    
    41   20   21 ar   
    42   20   36 1    
    43   21   37 1    
@<TRIPOS>SUBSTRUCTURE
     1 ****       29 TEMP              0 ****  ****    0 ROOT 
