#	Name:			WHQ-2014-SQER-761-50
#	Creating user name:	Administrator
#	Creation time:		Sun Jul 05 16:18:28 2020

#	Modifying user name:	Administrator
#	Modification time:	Sun Jul 05 16:19:33 2020

@<TRIPOS>MOLECULE
WHQ-2014-SQER-761-50
   41    44     1     0     0
SMALL
MULLIKEN_CHARGES
INVALID_CHARGES
Gaussian 16 #p B3LYP/6-31G* opt
@<TRIPOS>ATOM
      1 N          -7.985466   -2.971713   -0.500220 N.1       1 <1>        -0.483700 
      2 C          -6.910995   -2.543297   -0.368969 C.1       1 <1>         0.227900 
      3 C          -5.589837   -2.018029   -0.207565 C.ar      1 <1>         0.131800 
      4 C          -5.354685   -0.635720   -0.288040 C.ar      1 <1>        -0.153200 
      5 C          -4.077067   -0.112009   -0.133474 C.ar      1 <1>        -0.159100 
      6 C          -2.992891   -0.975588    0.108550 C.ar      1 <1>         0.381700 
      7 N          -1.671795   -0.555992    0.278247 N.pl3     1 <1>        -0.765600 
      8 C          -1.082522    0.688761    0.265511 C.ar      1 <1>         0.699700 
      9 N          -1.822897    1.786827    0.058379 N.ar      1 <1>        -0.482200 
     10 C          -1.143586    2.940244    0.074260 C.ar      1 <1>         0.069400 
     11 C           0.225449    3.032778    0.280927 C.ar      1 <1>        -0.221800 
     12 C           0.881302    1.805857    0.477323 C.ar      1 <1>         0.533000 
     13 O           2.216892    1.692642    0.719908 O.3       1 <1>        -0.530000 
     14 C           3.055631    2.784573    0.541499 C.ar      1 <1>         0.329200 
     15 C           3.321594    3.256704   -0.767793 C.ar      1 <1>        -0.154000 
     16 C           4.219427    4.281767   -0.946131 C.ar      1 <1>        -0.196000 
     17 C           4.890151    4.868914    0.162499 C.ar      1 <1>         0.143300 
     18 C           5.819846    5.923848    0.000374 C.ar      1 <1>        -0.213700 
     19 C           6.461397    6.474144    1.098398 C.ar      1 <1>         0.132700 
     20 C           7.399888    7.543466    0.922070 C.1       1 <1>         0.237400 
     21 N           8.162024    8.411870    0.786048 N.1       1 <1>        -0.474100 
     22 C           6.192046    5.980759    2.408286 C.ar      1 <1>        -0.141600 
     23 C           5.294624    4.957229    2.586525 C.ar      1 <1>        -0.193100 
     24 C           4.619330    4.372634    1.480214 C.ar      1 <1>         0.140000 
     25 C           3.683681    3.318343    1.641257 C.ar      1 <1>        -0.237700 
     26 N           0.248732    0.645294    0.473382 N.ar      1 <1>        -0.541500 
     27 C          -3.228800   -2.363033    0.189479 C.ar      1 <1>        -0.205500 
     28 C          -4.504648   -2.878841    0.034446 C.ar      1 <1>        -0.140300 
     29 H          -6.186855    0.035769   -0.474531 H         1 <1>         0.158800 
     30 H          -3.903880    0.952422   -0.196667 H         1 <1>         0.189500 
     31 H          -0.992344   -1.287477    0.445728 H         1 <1>         0.350400 
     32 H          -1.734691    3.840147   -0.084993 H         1 <1>         0.159600 
     33 H           0.740354    3.983604    0.299322 H         1 <1>         0.163100 
     34 H           2.820329    2.793098   -1.611325 H         1 <1>         0.159500 
     35 H           4.434253    4.650057   -1.945703 H         1 <1>         0.153500 
     36 H           6.029687    6.302648   -0.995454 H         1 <1>         0.163900 
     37 H           6.704760    6.423983    3.255508 H         1 <1>         0.163600 
     38 H           5.090023    4.580702    3.584995 H         1 <1>         0.151000 
     39 H           3.466255    2.922508    2.628500 H         1 <1>         0.156700 
     40 H          -2.397258   -3.038592    0.376287 H         1 <1>         0.138600 
     41 H          -4.669839   -3.949444    0.099566 H         1 <1>         0.159000 
@<TRIPOS>BOND
     1   16   35 1    
     2   15   34 1    
     3   16   15 ar   
     4   17   16 ar   
     5   18   36 1    
     6   15   14 ar   
     7   27   40 1    
     8   18   17 ar   
     9   19   18 ar   
    10   17   24 ar   
    11   28   41 1    
    12    7   31 1    
    13   27   28 ar   
    14    6   27 ar   
    15   14   13 1    
    16   14   25 ar   
    17   13   12 1    
    18   28    3 ar   
    19   12   26 ar   
    20   26    8 ar   
    21    7    6 1    
    22    8    7 1    
    23    6    5 ar   
    24   12   11 ar   
    25    8    9 ar   
    26   20   21 3    
    27    3    2 1    
    28    3    4 ar   
    29   20   19 1    
    30    2    1 3    
    31   19   22 ar   
    32    5    4 ar   
    33    5   30 1    
    34   11   33 1    
    35   11   10 ar   
    36    9   10 ar   
    37    4   29 1    
    38   24   25 ar   
    39   24   23 ar   
    40   25   39 1    
    41   10   32 1    
    42   22   23 ar   
    43   22   37 1    
    44   23   38 1    
@<TRIPOS>SUBSTRUCTURE
     1 ****       21 TEMP              0 ****  ****    0 ROOT 
