#	Name:			WHQ-2014-SQER-761-25
#	Creating user name:	Administrator
#	Creation time:		Sun Jul 05 16:18:24 2020

#	Modifying user name:	Administrator
#	Modification time:	Sun Jul 05 16:19:33 2020

@<TRIPOS>MOLECULE
WHQ-2014-SQER-761-25
   43    46     1     0     0
SMALL
MULLIKEN_CHARGES
INVALID_CHARGES
Gaussian 16 #p B3LYP/6-31G* opt
@<TRIPOS>ATOM
      1 C           1.021635    4.315672    0.333366 C.3       1 <1>        -0.521300 
      2 C           0.255849    3.023580    0.293636 C.ar      1 <1>         0.087100 
      3 C          -1.111198    2.934266    0.075930 C.ar      1 <1>         0.014800 
      4 N          -1.810622    1.786995    0.053975 N.ar      1 <1>        -0.486400 
      5 C          -1.099532    0.678692    0.263008 C.ar      1 <1>         0.700700 
      6 N          -1.705838   -0.560859    0.270676 N.pl3     1 <1>        -0.770400 
      7 C          -3.030877   -0.957158    0.090348 C.ar      1 <1>         0.383000 
      8 C          -4.096121   -0.073602   -0.165619 C.ar      1 <1>        -0.159900 
      9 C          -5.381738   -0.573034   -0.332187 C.ar      1 <1>        -0.153600 
     10 C          -5.644861   -1.950369   -0.250215 C.ar      1 <1>         0.130900 
     11 C          -6.973970   -2.450667   -0.424431 C.1       1 <1>         0.226900 
     12 N          -8.054872   -2.859167   -0.566375 N.1       1 <1>        -0.485500 
     13 C          -4.578971   -2.831193    0.006110 C.ar      1 <1>        -0.140600 
     14 C          -3.295113   -2.339871    0.173026 C.ar      1 <1>        -0.206300 
     15 N           0.233110    0.617971    0.482032 N.ar      1 <1>        -0.563000 
     16 C           0.870882    1.770170    0.492948 C.ar      1 <1>         0.534600 
     17 O           2.218923    1.785594    0.695731 O.3       1 <1>        -0.560100 
     18 C           2.874228    0.602466    1.007789 C.ar      1 <1>         0.335900 
     19 C           3.469316   -0.128422   -0.043149 C.ar      1 <1>        -0.148600 
     20 C           4.207085   -1.252372    0.233192 C.ar      1 <1>        -0.201600 
     21 C           4.381771   -1.694729    1.571207 C.ar      1 <1>         0.154900 
     22 C           5.143614   -2.856368    1.866066 C.ar      1 <1>        -0.226200 
     23 C           5.301153   -3.265074    3.167197 C.ar      1 <1>         0.084100 
     24 BR          6.325330   -4.828927    3.558782 Br        1 <1>        -0.118400 
     25 C           4.717249   -2.549302    4.236037 C.ar      1 <1>        -0.150300 
     26 C           3.975687   -1.420291    3.975383 C.ar      1 <1>        -0.187400 
     27 C           3.782646   -0.956586    2.646930 C.ar      1 <1>         0.094000 
     28 C           3.026043    0.205367    2.318472 C.ar      1 <1>        -0.007900 
     29 BR          2.201790    1.247550    3.683120 Br        1 <1>        -0.098000 
     30 H           0.349243    5.166866    0.187861 H         1 <1>         0.158100 
     31 H           1.792474    4.352506   -0.445569 H         1 <1>         0.171500 
     32 H           1.534269    4.441443    1.294070 H         1 <1>         0.179000 
     33 H          -1.690885    3.841683   -0.089014 H         1 <1>         0.149500 
     34 H          -1.041227   -1.302472    0.450231 H         1 <1>         0.347900 
     35 H          -3.900863    0.987035   -0.229265 H         1 <1>         0.189800 
     36 H          -6.198760    0.113926   -0.529404 H         1 <1>         0.157600 
     37 H          -4.765675   -3.898123    0.072941 H         1 <1>         0.157400 
     38 H          -2.478842   -3.030748    0.371235 H         1 <1>         0.136400 
     39 H           3.330186    0.225452   -1.059305 H         1 <1>         0.154300 
     40 H           4.668000   -1.817203   -0.571984 H         1 <1>         0.149300 
     41 H           5.597244   -3.414068    1.053388 H         1 <1>         0.159000 
     42 H           4.857636   -2.894689    5.254180 H         1 <1>         0.161700 
     43 H           3.526376   -0.870145    4.794119 H         1 <1>         0.167100 
@<TRIPOS>BOND
     1   26   43 1    
     2   25   42 1    
     3   28   29 1    
     4   26   25 ar   
     5   27   26 ar   
     6   25   23 ar   
     7   11   12 3    
     8   10   11 1    
     9    9   36 1    
    10    9   10 ar   
    11   13   10 ar   
    12   28   27 ar   
    13   18   28 ar   
    14    8    9 ar   
    15   27   21 ar   
    16    1   32 1    
    17   13   37 1    
    18   14   13 ar   
    19    8   35 1    
    20    7    8 ar   
    21   23   24 1    
    22   23   22 ar   
    23    7   14 ar   
    24   14   38 1    
    25    6    7 1    
    26    3   33 1    
    27    3    4 ar   
    28    5    4 ar   
    29    5    6 1    
    30    6   34 1    
    31    2    3 ar   
    32   15    5 ar   
    33    1   30 1    
    34    2    1 1    
    35   16    2 ar   
    36   16   15 ar   
    37    1   31 1    
    38   17   16 1    
    39   17   18 1    
    40   18   19 ar   
    41   21   22 ar   
    42   21   20 ar   
    43   22   41 1    
    44   19   20 ar   
    45   19   39 1    
    46   20   40 1    
@<TRIPOS>SUBSTRUCTURE
     1 ****       12 TEMP              0 ****  ****    0 ROOT 
