#	Name:			WHQ-2014-SQER-761-58
#	Creating user name:	Administrator
#	Creation time:		Sun Jul 05 16:18:29 2020

#	Modifying user name:	Administrator
#	Modification time:	Sun Jul 05 16:19:33 2020

@<TRIPOS>MOLECULE
WHQ-2014-SQER-761-58
   48    51     1     0     0
SMALL
MULLIKEN_CHARGES
INVALID_CHARGES
Gaussian 16 #p B3LYP/6-31G* opt
@<TRIPOS>ATOM
      1 C          -3.386913    3.977061   -0.192417 C.3       1 <1>        -0.285400 
      2 N          -1.935537    4.036109   -0.132384 N.pl3     1 <1>        -0.640900 
      3 C          -1.168788    2.924254    0.077704 C.ar      1 <1>         0.518600 
      4 N          -1.808934    1.748526    0.092768 N.ar      1 <1>        -0.609400 
      5 C          -1.040208    0.662998    0.275163 C.ar      1 <1>         0.711800 
      6 N          -1.748541   -0.524073    0.225585 N.pl3     1 <1>        -0.777100 
      7 C          -1.362035   -1.853079    0.381275 C.ar      1 <1>         0.383900 
      8 C          -2.375310   -2.827188    0.259713 C.ar      1 <1>        -0.206800 
      9 C          -2.090444   -4.174995    0.398107 C.ar      1 <1>        -0.141300 
     10 C          -0.775048   -4.595658    0.664313 C.ar      1 <1>         0.129400 
     11 C          -0.473177   -5.986453    0.807947 C.1       1 <1>         0.224900 
     12 N          -0.229679   -7.119203    0.924362 N.1       1 <1>        -0.489400 
     13 C           0.234385   -3.625881    0.785870 C.ar      1 <1>        -0.155200 
     14 C          -0.044120   -2.272206    0.648019 C.ar      1 <1>        -0.162800 
     15 N           0.268856    0.645619    0.507083 N.ar      1 <1>        -0.549000 
     16 C           0.874406    1.835347    0.505382 C.ar      1 <1>         0.464600 
     17 O           2.230260    1.698572    0.709339 O.3       1 <1>        -0.551600 
     18 C           3.026379    2.590909    1.388637 C.ar      1 <1>         0.313700 
     19 C           4.244290    2.910212    0.734946 C.ar      1 <1>        -0.170700 
     20 C           5.164190    3.731523    1.331728 C.ar      1 <1>        -0.193900 
     21 C           4.920548    4.286364    2.615835 C.ar      1 <1>         0.145500 
     22 C           5.858351    5.149925    3.239519 C.ar      1 <1>        -0.194300 
     23 C           5.617982    5.676899    4.487579 C.ar      1 <1>        -0.132200 
     24 C           4.419358    5.355277    5.164440 C.ar      1 <1>        -0.131400 
     25 C           3.486941    4.519813    4.589799 C.ar      1 <1>        -0.192700 
     26 C           3.702552    3.960146    3.302055 C.ar      1 <1>         0.094900 
     27 C           2.775022    3.084345    2.655792 C.ar      1 <1>        -0.020400 
     28 BR          1.181588    2.567517    3.571441 Br        1 <1>        -0.098500 
     29 C           0.244523    3.045168    0.234912 C.ar      1 <1>         0.097500 
     30 C           0.921982    4.383517    0.094354 C.3       1 <1>        -0.567400 
     31 H          -3.760762    4.970161   -0.454326 H         1 <1>         0.151000 
     32 H          -3.699104    3.265888   -0.960467 H         1 <1>         0.181800 
     33 H          -3.834354    3.663250    0.760049 H         1 <1>         0.162900 
     34 H          -1.524110    4.923003    0.112307 H         1 <1>         0.333900 
     35 H          -2.731542   -0.362688    0.049385 H         1 <1>         0.341000 
     36 H          -3.396511   -2.514234    0.053648 H         1 <1>         0.131700 
     37 H          -2.882267   -4.910882    0.301260 H         1 <1>         0.153700 
     38 H           1.252552   -3.941037    0.992139 H         1 <1>         0.156100 
     39 H           0.738013   -1.532952    0.743880 H         1 <1>         0.197600 
     40 H           4.413359    2.477973   -0.245994 H         1 <1>         0.156200 
     41 H           6.093968    3.970988    0.822811 H         1 <1>         0.143800 
     42 H           6.776432    5.386231    2.706968 H         1 <1>         0.136500 
     43 H           6.344397    6.336309    4.953771 H         1 <1>         0.136800 
     44 H           4.230189    5.770784    6.150332 H         1 <1>         0.137900 
     45 H           2.572208    4.279149    5.118657 H         1 <1>         0.156200 
     46 H           1.976021    4.282067   -0.167166 H         1 <1>         0.181300 
     47 H           0.874505    4.979161    1.017490 H         1 <1>         0.169700 
     48 H           0.452010    4.964884   -0.708474 H         1 <1>         0.157400 
@<TRIPOS>BOND
     1   24   44 1    
     2   25   45 1    
     3   27   28 1    
     4   25   24 ar   
     5   24   23 ar   
     6    1   33 1    
     7   26   25 ar   
     8    8   36 1    
     9    9   37 1    
    10   23   43 1    
    11    1   31 1    
    12    1   32 1    
    13    2    1 1    
    14    8    9 ar   
    15    7    8 ar   
    16    9   10 ar   
    17   22   23 ar   
    18    6   35 1    
    19   27   26 ar   
    20   26   21 ar   
    21   18   27 ar   
    22    6    7 1    
    23    5    6 1    
    24    7   14 ar   
    25   10   11 1    
    26   13   10 ar   
    27   11   12 3    
    28    5    4 ar   
    29    3    4 ar   
    30    2   34 1    
    31    3    2 1    
    32   15    5 ar   
    33   14   13 ar   
    34   13   38 1    
    35   14   39 1    
    36   29    3 ar   
    37   30   47 1    
    38   16   15 ar   
    39   21   22 ar   
    40   22   42 1    
    41   16   29 ar   
    42   29   30 1    
    43   17   16 1    
    44   21   20 ar   
    45   18   17 1    
    46   18   19 ar   
    47   30   48 1    
    48   30   46 1    
    49   20   19 ar   
    50   20   41 1    
    51   19   40 1    
@<TRIPOS>SUBSTRUCTURE
     1 ****       44 TEMP              0 ****  ****    0 ROOT 
