#	Name:			WHQ-2014-SQER-761-40
#	Creating user name:	Administrator
#	Creation time:		Sun Jul 05 16:18:27 2020

#	Modifying user name:	Administrator
#	Modification time:	Sun Jul 05 16:19:33 2020

@<TRIPOS>MOLECULE
WHQ-2014-SQER-761-40
   46    49     1     0     0
SMALL
MULLIKEN_CHARGES
INVALID_CHARGES
Gaussian 16 #p B3LYP/6-31G* opt
@<TRIPOS>ATOM
      1 C           1.069057    4.854809    1.880455 C.3       1 <1>        -0.441500 
      2 C           0.927950    4.402726    0.415345 C.3       1 <1>        -0.352700 
      3 C           0.236188    3.065716    0.282990 C.ar      1 <1>         0.126400 
      4 C          -1.142385    2.923258    0.084044 C.ar      1 <1>         0.067900 
      5 CL         -2.146985    4.353896   -0.140322 Cl        1 <1>         0.016600 
      6 N          -1.811432    1.781452    0.055903 N.ar      1 <1>        -0.482900 
      7 C          -1.081573    0.681163    0.266117 C.ar      1 <1>         0.699900 
      8 N          -1.677381   -0.558283    0.288429 N.pl3     1 <1>        -0.770900 
      9 C          -3.004301   -0.968264    0.135242 C.ar      1 <1>         0.381500 
     10 C          -3.248267   -2.353846    0.220693 C.ar      1 <1>        -0.205200 
     11 C          -4.529646   -2.860695    0.082893 C.ar      1 <1>        -0.140100 
     12 C          -5.611472   -1.992197   -0.145886 C.ar      1 <1>         0.132300 
     13 C          -6.938384   -2.508797   -0.289204 C.1       1 <1>         0.228700 
     14 N          -8.016886   -2.931064   -0.405499 N.1       1 <1>        -0.483100 
     15 C          -5.367926   -0.611689   -0.231138 C.ar      1 <1>        -0.153500 
     16 C          -4.084545   -0.096736   -0.093777 C.ar      1 <1>        -0.162800 
     17 N           0.246045    0.650178    0.462956 N.ar      1 <1>        -0.527700 
     18 C           0.873274    1.811900    0.447596 C.ar      1 <1>         0.485700 
     19 O           2.208839    1.681026    0.739901 O.3       1 <1>        -0.543900 
     20 C           3.252195    2.328638    0.116449 C.ar      1 <1>         0.306800 
     21 C           4.247670    2.817679    0.999464 C.ar      1 <1>        -0.166300 
     22 C           5.383280    3.410703    0.513975 C.ar      1 <1>        -0.191100 
     23 C           5.586251    3.553182   -0.883968 C.ar      1 <1>         0.147300 
     24 C           6.753751    4.177533   -1.394743 C.ar      1 <1>        -0.222400 
     25 C           6.932449    4.300023   -2.750732 C.ar      1 <1>         0.082900 
     26 BR          8.503251    5.141499   -3.435727 Br        1 <1>        -0.116800 
     27 C           5.968535    3.811886   -3.659535 C.ar      1 <1>        -0.147900 
     28 C           4.829198    3.202185   -3.186391 C.ar      1 <1>        -0.191200 
     29 C           4.596333    3.051302   -1.793151 C.ar      1 <1>         0.102600 
     30 C           3.433892    2.421720   -1.251645 C.ar      1 <1>        -0.014000 
     31 BR          2.126571    1.692998   -2.432919 Br        1 <1>        -0.086100 
     32 H           1.650996    4.133771    2.464812 H         1 <1>         0.150100 
     33 H           1.577625    5.823690    1.933012 H         1 <1>         0.154400 
     34 H           0.087903    4.959409    2.355290 H         1 <1>         0.162200 
     35 H           1.914214    4.364896   -0.051519 H         1 <1>         0.165100 
     36 H           0.357348    5.150337   -0.140986 H         1 <1>         0.175900 
     37 H          -0.999949   -1.293516    0.447426 H         1 <1>         0.352500 
     38 H          -2.418975   -3.034881    0.397380 H         1 <1>         0.139200 
     39 H          -4.701617   -3.929967    0.151194 H         1 <1>         0.159500 
     40 H          -6.197241    0.065795   -0.407724 H         1 <1>         0.161300 
     41 H          -3.909856    0.967148   -0.162067 H         1 <1>         0.198000 
     42 H           4.076948    2.698659    2.064183 H         1 <1>         0.162000 
     43 H           6.140844    3.782772    1.197702 H         1 <1>         0.151500 
     44 H           7.499562    4.554749   -0.702707 H         1 <1>         0.159700 
     45 H           6.131653    3.921213   -4.725986 H         1 <1>         0.162600 
     46 H           4.091662    2.829893   -3.887505 H         1 <1>         0.167600 
@<TRIPOS>BOND
     1   21   42 1    
     2   22   43 1    
     3   21   22 ar   
     4   20   21 ar   
     5   10   38 1    
     6   22   23 ar   
     7    8   37 1    
     8   19   20 1    
     9   18   19 1    
    10    1   32 1    
    11   11   39 1    
    12   20   30 ar   
    13   24   44 1    
    14   18   17 ar   
    15   17    7 ar   
    16   10   11 ar   
    17    9   10 ar   
    18    7    8 1    
    19    8    9 1    
    20   23   24 ar   
    21   29   23 ar   
    22    3   18 ar   
    23   11   12 ar   
    24   24   25 ar   
    25    7    6 ar   
    26    9   16 ar   
    27    1   34 1    
    28    1   33 1    
    29    2    1 1    
    30   30   29 ar   
    31   30   31 1    
    32   29   28 ar   
    33    3    2 1    
    34    3    4 ar   
    35   12   13 1    
    36   12   15 ar   
    37   25   26 1    
    38   25   27 ar   
    39    2   35 1    
    40    2   36 1    
    41    6    4 ar   
    42   16   15 ar   
    43   16   41 1    
    44   13   14 3    
    45    4    5 1    
    46   15   40 1    
    47   28   27 ar   
    48   28   46 1    
    49   27   45 1    
@<TRIPOS>SUBSTRUCTURE
     1 ****       37 TEMP              0 ****  ****    0 ROOT 
