#	Name:			WHQ-2014-SQER-761-7
#	Creating user name:	Administrator
#	Creation time:		Sun Jul 05 16:18:31 2020

#	Modifying user name:	Administrator
#	Modification time:	Sun Jul 05 16:19:33 2020

@<TRIPOS>MOLECULE
WHQ-2014-SQER-761-7
   40    43     1     0     0
SMALL
MULLIKEN_CHARGES
INVALID_CHARGES
Gaussian 16 #p B3LYP/6-31G* opt
@<TRIPOS>ATOM
      1 N          -8.046626   -2.867128   -0.581987 N.1       1 <1>        -0.484300 
      2 C          -6.966742   -2.456389   -0.439058 C.1       1 <1>         0.227700 
      3 C          -5.638841   -1.952844   -0.263070 C.ar      1 <1>         0.131600 
      4 C          -5.382487   -0.573422   -0.326088 C.ar      1 <1>        -0.153400 
      5 C          -4.098325   -0.070747   -0.157107 C.ar      1 <1>        -0.159100 
      6 C          -3.028906   -0.953407    0.081862 C.ar      1 <1>         0.381800 
      7 N          -1.703644   -0.554734    0.266205 N.pl3     1 <1>        -0.767900 
      8 C          -1.097759    0.682504    0.264101 C.ar      1 <1>         0.700700 
      9 N          -1.815459    1.791034    0.058549 N.ar      1 <1>        -0.487500 
     10 C          -1.116957    2.938717    0.075487 C.ar      1 <1>         0.069700 
     11 C           0.248365    3.005961    0.287480 C.ar      1 <1>        -0.216700 
     12 C           0.880071    1.767249    0.492020 C.ar      1 <1>         0.569500 
     13 O           2.221664    1.789434    0.699705 O.3       1 <1>        -0.568300 
     14 C           2.902984    0.593824    0.947228 C.ar      1 <1>         0.292200 
     15 C           2.978671    0.112332    2.228957 C.ar      1 <1>        -0.149900 
     16 C           3.733493   -1.050188    2.497488 C.ar      1 <1>        -0.158700 
     17 C           4.392829   -1.693245    1.476008 C.ar      1 <1>        -0.130300 
     18 CL          5.317172   -3.141130    1.864022 Cl        1 <1>        -0.010000 
     19 C           4.348345   -1.217599    0.132349 C.ar      1 <1>         0.123400 
     20 C           5.020231   -1.845131   -0.950082 C.ar      1 <1>        -0.197700 
     21 C           4.939823   -1.330759   -2.224368 C.ar      1 <1>        -0.129200 
     22 C           4.186836   -0.161499   -2.481795 C.ar      1 <1>        -0.131000 
     23 C           3.521883    0.473492   -1.458530 C.ar      1 <1>        -0.186900 
     24 C           3.578387   -0.033690   -0.133765 C.ar      1 <1>         0.123200 
     25 N           0.235294    0.616245    0.484389 N.ar      1 <1>        -0.556600 
     26 C          -3.285946   -2.338041    0.145177 C.ar      1 <1>        -0.205800 
     27 C          -4.568395   -2.832760   -0.024018 C.ar      1 <1>        -0.140500 
     28 H          -6.203328    0.112590   -0.510211 H         1 <1>         0.158400 
     29 H          -3.907905    0.991486   -0.207052 H         1 <1>         0.190100 
     30 H          -1.035790   -1.297657    0.429521 H         1 <1>         0.350300 
     31 H          -1.695337    3.845293   -0.090486 H         1 <1>         0.157900 
     32 H           0.802630    3.935625    0.301203 H         1 <1>         0.159300 
     33 H           2.458846    0.625536    3.030912 H         1 <1>         0.150600 
     34 H           3.793800   -1.435480    3.509223 H         1 <1>         0.161300 
     35 H           5.602207   -2.739039   -0.757185 H         1 <1>         0.161300 
     36 H           5.461556   -1.825234   -3.038833 H         1 <1>         0.140800 
     37 H           4.136186    0.236483   -3.491299 H         1 <1>         0.139900 
     38 H           2.951242    1.376113   -1.647161 H         1 <1>         0.146700 
     39 H          -2.465794   -3.028103    0.329173 H         1 <1>         0.138600 
     40 H          -4.750020   -3.901411    0.027374 H         1 <1>         0.158600 
@<TRIPOS>BOND
     1   16   34 1    
     2   15   33 1    
     3   15   16 ar   
     4   16   17 ar   
     5   14   15 ar   
     6   17   18 1    
     7   17   19 ar   
     8   13   14 1    
     9   14   24 ar   
    10   12   13 1    
    11   11   32 1    
    12   12   11 ar   
    13   12   25 ar   
    14   11   10 ar   
    15   25    8 ar   
    16   10   31 1    
    17   10    9 ar   
    18    8    9 ar   
    19    8    7 1    
    20    7   30 1    
    21    7    6 1    
    22    6   26 ar   
    23    6    5 ar   
    24   26   39 1    
    25    5   29 1    
    26   26   27 ar   
    27    5    4 ar   
    28   27   40 1    
    29   27    3 ar   
    30    4   28 1    
    31    4    3 ar   
    32    3    2 1    
    33    2    1 3    
    34   19   24 ar   
    35   19   20 ar   
    36   24   23 ar   
    37   20   35 1    
    38   20   21 ar   
    39   23   38 1    
    40   23   22 ar   
    41   21   22 ar   
    42   21   36 1    
    43   22   37 1    
@<TRIPOS>SUBSTRUCTURE
     1 ****       34 TEMP              0 ****  ****    0 ROOT 
