#	Name:			WHQ-2015-BMC-624-3-3i
#	Creating user name:	Administrator
#	Creation time:		Sun Jul 05 16:18:34 2020

#	Modifying user name:	Administrator
#	Modification time:	Sun Jul 05 16:19:33 2020

@<TRIPOS>MOLECULE
WHQ-2015-BMC-624-3-3i
   44    46     1     0     0
SMALL
MULLIKEN_CHARGES
INVALID_CHARGES
Gaussian 16 #p B3LYP/6-31G* opt
@<TRIPOS>ATOM
      1 C          -1.937278    4.198953   -0.156774 C.3       1 <1>        -0.514200 
      2 C          -1.122954    2.955340    0.073249 C.ar      1 <1>         0.344000 
      3 C           0.244897    3.001568    0.289852 C.ar      1 <1>        -0.256800 
      4 C           0.882993    1.765222    0.491752 C.ar      1 <1>         0.605700 
      5 O           2.212252    1.790718    0.700334 O.3       1 <1>        -0.485300 
      6 C           2.867656    0.549095    0.933781 C.3       1 <1>        -0.120900 
      7 C           4.282071    0.875550    1.427107 C.2       1 <1>         0.610100 
      8 O           4.497921    1.790804    2.201338 O.2       1 <1>        -0.480500 
      9 N           5.230680   -0.000434    0.951460 N.am      1 <1>        -0.723900 
     10 C           6.602183   -0.078746    1.279240 C.ar      1 <1>         0.356200 
     11 C           7.232156    0.805314    2.167988 C.ar      1 <1>        -0.155100 
     12 C           8.591215    0.657978    2.441303 C.ar      1 <1>        -0.145900 
     13 C           9.323527   -0.359873    1.834041 C.ar      1 <1>        -0.062800 
     14 CL         11.037340   -0.534091    2.185556 Cl        1 <1>        -0.022000 
     15 C           8.709304   -1.242782    0.947206 C.ar      1 <1>        -0.134100 
     16 C           7.352807   -1.098409    0.674769 C.ar      1 <1>        -0.191400 
     17 N           0.241161    0.607515    0.480208 N.ar      1 <1>        -0.597200 
     18 C          -1.094275    0.682985    0.264058 C.ar      1 <1>         0.703800 
     19 N          -1.706468   -0.554543    0.270327 N.pl3     1 <1>        -0.770800 
     20 C          -3.033055   -0.948025    0.091648 C.ar      1 <1>         0.382900 
     21 C          -3.298930   -2.330592    0.170298 C.ar      1 <1>        -0.206200 
     22 C          -4.583749   -2.820203    0.005234 C.ar      1 <1>        -0.140400 
     23 C          -5.649148   -1.937371   -0.245119 C.ar      1 <1>         0.131300 
     24 C          -6.979263   -2.435648   -0.417661 C.1       1 <1>         0.227200 
     25 N          -8.060909   -2.842691   -0.558223 N.1       1 <1>        -0.484600 
     26 C          -5.384615   -0.559977   -0.323063 C.ar      1 <1>        -0.153700 
     27 C          -4.097938   -0.062659   -0.158323 C.ar      1 <1>        -0.159000 
     28 N          -1.806032    1.787605    0.058157 N.ar      1 <1>        -0.544200 
     29 H          -2.715413    4.286005    0.609897 H         1 <1>         0.180300 
     30 H          -1.317909    5.099266   -0.135173 H         1 <1>         0.161800 
     31 H          -2.446283    4.141562   -1.125573 H         1 <1>         0.179000 
     32 H           0.808643    3.925462    0.311388 H         1 <1>         0.156900 
     33 H           2.862928   -0.056851    0.019001 H         1 <1>         0.151800 
     34 H           2.340732   -0.019501    1.708659 H         1 <1>         0.193800 
     35 H           4.915395   -0.684969    0.276980 H         1 <1>         0.333800 
     36 H           6.659692    1.595668    2.632431 H         1 <1>         0.198200 
     37 H           9.079429    1.340875    3.128468 H         1 <1>         0.162400 
     38 H           9.282901   -2.033423    0.475854 H         1 <1>         0.158800 
     39 H           6.873882   -1.789249   -0.016194 H         1 <1>         0.132200 
     40 H          -1.044359   -1.299709    0.442643 H         1 <1>         0.341800 
     41 H          -2.483056   -3.023378    0.363863 H         1 <1>         0.133700 
     42 H          -4.771483   -3.887071    0.068835 H         1 <1>         0.157600 
     43 H          -6.201522    0.128455   -0.515571 H         1 <1>         0.158000 
     44 H          -3.899978    0.997563   -0.218811 H         1 <1>         0.187800 
@<TRIPOS>BOND
     1   16   39 1    
     2   15   38 1    
     3    1   31 1    
     4    9   35 1    
     5   16   15 ar   
     6   10   16 ar   
     7    6   33 1    
     8   15   13 ar   
     9    1   30 1    
    10    2    1 1    
    11    1   29 1    
    12    9   10 1    
    13    7    9 1    
    14    3   32 1    
    15    2    3 ar   
    16   28    2 ar   
    17    4    3 ar   
    18   10   11 ar   
    19   18   28 ar   
    20   27   44 1    
    21    4    5 1    
    22   17    4 ar   
    23    5    6 1    
    24   26   43 1    
    25   18   17 ar   
    26   19   18 1    
    27   27   26 ar   
    28   20   27 ar   
    29   13   14 1    
    30   13   12 ar   
    31   26   23 ar   
    32    6    7 1    
    33    6   34 1    
    34   19   20 1    
    35   19   40 1    
    36   20   21 ar   
    37   23   24 1    
    38   23   22 ar   
    39   24   25 3    
    40   21   22 ar   
    41   21   41 1    
    42   22   42 1    
    43    7    8 2    
    44   11   12 ar   
    45   11   36 1    
    46   12   37 1    
@<TRIPOS>SUBSTRUCTURE
     1 ****       31 TEMP              0 ****  ****    0 ROOT 
