#	Name:			WHQ-2014-SQER-761-37
#	Creating user name:	Administrator
#	Creation time:		Sun Jul 05 16:18:26 2020

#	Modifying user name:	Administrator
#	Modification time:	Sun Jul 05 16:19:33 2020

@<TRIPOS>MOLECULE
WHQ-2014-SQER-761-37
   46    49     1     0     0
SMALL
MULLIKEN_CHARGES
INVALID_CHARGES
Gaussian 16 #p B3LYP/6-31G* opt
@<TRIPOS>ATOM
      1 C           1.666232    4.660951   -1.059303 C.3       1 <1>        -0.442300 
      2 C           1.052527    4.316911    0.310196 C.3       1 <1>        -0.332000 
      3 C           0.258253    3.034419    0.298312 C.ar      1 <1>         0.089500 
      4 C          -1.110292    2.921261    0.073542 C.ar      1 <1>         0.066000 
      5 CL         -2.068509    4.370207   -0.215223 Cl        1 <1>         0.013200 
      6 N          -1.803090    1.787074    0.054041 N.ar      1 <1>        -0.492000 
      7 C          -1.095851    0.675445    0.265105 C.ar      1 <1>         0.699000 
      8 N          -1.711792   -0.555443    0.267967 N.pl3     1 <1>        -0.771700 
      9 C          -3.040986   -0.942036    0.081153 C.ar      1 <1>         0.381400 
     10 C          -3.309832   -2.324191    0.146736 C.ar      1 <1>        -0.205800 
     11 C          -4.596020   -2.808271   -0.023986 C.ar      1 <1>        -0.140300 
     12 C          -5.658225   -1.919491   -0.266771 C.ar      1 <1>         0.132000 
     13 C          -6.989885   -2.412630   -0.443861 C.1       1 <1>         0.228300 
     14 N          -8.072293   -2.816389   -0.587308 N.1       1 <1>        -0.483800 
     15 C          -5.389956   -0.542526   -0.332234 C.ar      1 <1>        -0.153800 
     16 C          -4.101767   -0.050320   -0.161852 C.ar      1 <1>        -0.162400 
     17 N           0.232230    0.615314    0.485319 N.ar      1 <1>        -0.560400 
     18 C           0.870692    1.771415    0.493564 C.ar      1 <1>         0.537800 
     19 O           2.211425    1.786925    0.690087 O.3       1 <1>        -0.565900 
     20 C           2.890752    0.601999    0.999230 C.ar      1 <1>         0.357100 
     21 C           2.720124    0.008784    2.271329 C.ar      1 <1>        -0.139700 
     22 C           3.467978   -1.096338    2.600821 C.ar      1 <1>        -0.209500 
     23 C           4.409858   -1.647745    1.689041 C.ar      1 <1>         0.146800 
     24 C           5.195223   -2.787402    2.006796 C.ar      1 <1>        -0.193600 
     25 C           6.101044   -3.294106    1.102018 C.ar      1 <1>        -0.133900 
     26 C           6.263087   -2.681250   -0.164481 C.ar      1 <1>        -0.135400 
     27 C           5.518063   -1.573859   -0.503271 C.ar      1 <1>        -0.189000 
     28 C           4.574446   -1.027714    0.407296 C.ar      1 <1>         0.126800 
     29 C           3.789108    0.112190    0.086692 C.ar      1 <1>        -0.236100 
     30 H           0.887970    4.790408   -1.818826 H         1 <1>         0.158600 
     31 H           2.239183    5.592812   -0.997408 H         1 <1>         0.151400 
     32 H           2.343447    3.868343   -1.394131 H         1 <1>         0.154200 
     33 H           0.405643    5.135860    0.637700 H         1 <1>         0.166500 
     34 H           1.853595    4.223287    1.050473 H         1 <1>         0.164200 
     35 H          -1.050301   -1.303550    0.433133 H         1 <1>         0.351200 
     36 H          -2.495779   -3.020817    0.333730 H         1 <1>         0.137900 
     37 H          -4.787091   -3.875194    0.029053 H         1 <1>         0.158600 
     38 H          -6.203998    0.150566   -0.519401 H         1 <1>         0.161000 
     39 H          -3.906955    1.011036   -0.214766 H         1 <1>         0.198900 
     40 H           2.006172    0.435279    2.967772 H         1 <1>         0.144000 
     41 H           3.348040   -1.561588    3.576099 H         1 <1>         0.139800 
     42 H           5.068846   -3.254527    2.980634 H         1 <1>         0.134000 
     43 H           6.696038   -4.166734    1.356838 H         1 <1>         0.135200 
     44 H           6.980988   -3.089668   -0.870471 H         1 <1>         0.135800 
     45 H           5.642135   -1.102444   -1.475137 H         1 <1>         0.135000 
     46 H           3.901363    0.600525   -0.876643 H         1 <1>         0.143500 
@<TRIPOS>BOND
     1   27   45 1    
     2   26   44 1    
     3    1   30 1    
     4    1   32 1    
     5   27   26 ar   
     6   28   27 ar   
     7   29   46 1    
     8   26   25 ar   
     9    1   31 1    
    10    2    1 1    
    11   29   28 ar   
    12   20   29 ar   
    13   28   23 ar   
    14   13   14 3    
    15   12   13 1    
    16   25   43 1    
    17   25   24 ar   
    18   15   12 ar   
    19   11   12 ar   
    20   15   38 1    
    21   11   37 1    
    22   16   15 ar   
    23   10   11 ar   
    24   16   39 1    
    25    9   16 ar   
    26   10   36 1    
    27    9   10 ar   
    28    8    9 1    
    29    8   35 1    
    30    7    8 1    
    31    7    6 ar   
    32    4    6 ar   
    33    4    5 1    
    34   17    7 ar   
    35    3    4 ar   
    36   18   17 ar   
    37   18    3 ar   
    38    3    2 1    
    39   19   18 1    
    40    2   33 1    
    41    2   34 1    
    42   19   20 1    
    43   20   21 ar   
    44   23   24 ar   
    45   23   22 ar   
    46   24   42 1    
    47   21   22 ar   
    48   21   40 1    
    49   22   41 1    
@<TRIPOS>SUBSTRUCTURE
     1 ****       14 TEMP              0 ****  ****    0 ROOT 
