#	Name:			WHQ-2014-SQER-761-12
#	Creating user name:	Administrator
#	Creation time:		Sun Jul 05 16:18:22 2020

#	Modifying user name:	Administrator
#	Modification time:	Sun Jul 05 16:19:33 2020

@<TRIPOS>MOLECULE
WHQ-2014-SQER-761-12
   43    46     1     0     0
SMALL
MULLIKEN_CHARGES
INVALID_CHARGES
Gaussian 16 #p B3LYP/6-31G* opt
@<TRIPOS>ATOM
      1 C           0.911984    4.382584    0.341573 C.3       1 <1>        -0.538700 
      2 C           0.233546    3.040688    0.278537 C.ar      1 <1>         0.120300 
      3 C          -1.145294    2.911243    0.080739 C.ar      1 <1>         0.012800 
      4 N          -1.805804    1.754749    0.067577 N.ar      1 <1>        -0.485700 
      5 C          -1.052570    0.657808    0.272341 C.ar      1 <1>         0.691200 
      6 N          -1.770405   -0.519459    0.268691 N.pl3     1 <1>        -0.766500 
      7 C          -1.395920   -1.851835    0.444179 C.ar      1 <1>         0.381900 
      8 C          -2.424505   -2.812993    0.361910 C.ar      1 <1>        -0.205600 
      9 C          -2.154486   -4.161512    0.522442 C.ar      1 <1>        -0.140500 
     10 C          -0.839731   -4.593975    0.771693 C.ar      1 <1>         0.131000 
     11 C          -0.553073   -5.985852    0.938037 C.1       1 <1>         0.227200 
     12 N          -0.321848   -7.118909    1.072696 N.1       1 <1>        -0.485400 
     13 C           0.184753   -3.636688    0.854345 C.ar      1 <1>        -0.153800 
     14 C          -0.079128   -2.282027    0.694493 C.ar      1 <1>        -0.164100 
     15 N           0.272301    0.637188    0.461971 N.ar      1 <1>        -0.518400 
     16 C           0.890562    1.811892    0.457861 C.ar      1 <1>         0.459700 
     17 O           2.229237    1.742302    0.740219 O.3       1 <1>        -0.549600 
     18 C           3.166850    2.227789   -0.159523 C.ar      1 <1>         0.351000 
     19 C           2.940025    2.187515   -1.557342 C.ar      1 <1>        -0.172300 
     20 C           3.922718    2.629661   -2.413295 C.ar      1 <1>        -0.204100 
     21 C           5.166621    3.111713   -1.926437 C.ar      1 <1>         0.142700 
     22 C           6.196171    3.568678   -2.791854 C.ar      1 <1>        -0.191000 
     23 C           7.392011    4.024539   -2.285226 C.ar      1 <1>        -0.136100 
     24 C           7.611030    4.042993   -0.885329 C.ar      1 <1>        -0.134900 
     25 C           6.634255    3.606584   -0.019223 C.ar      1 <1>        -0.190300 
     26 C           5.387881    3.129798   -0.509682 C.ar      1 <1>         0.133700 
     27 C           4.358466    2.681789    0.356961 C.ar      1 <1>        -0.252900 
     28 H           1.556510    4.460696    1.223813 H         1 <1>         0.177400 
     29 H           0.165078    5.181220    0.394966 H         1 <1>         0.161000 
     30 H           1.542926    4.570051   -0.534771 H         1 <1>         0.180600 
     31 H          -1.751006    3.805922   -0.062548 H         1 <1>         0.151700 
     32 H          -2.755322   -0.350451    0.107481 H         1 <1>         0.347900 
     33 H          -3.445068   -2.490379    0.169165 H         1 <1>         0.136700 
     34 H          -2.957493   -4.888455    0.456101 H         1 <1>         0.157400 
     35 H           1.202460   -3.961292    1.047391 H         1 <1>         0.159300 
     36 H           0.716947   -1.554610    0.760821 H         1 <1>         0.195500 
     37 H           2.002791    1.797763   -1.941110 H         1 <1>         0.151100 
     38 H           3.754990    2.600640   -3.487045 H         1 <1>         0.140500 
     39 H           6.022867    3.550621   -3.865360 H         1 <1>         0.132900 
     40 H           8.172854    4.370947   -2.956394 H         1 <1>         0.133500 
     41 H           8.559098    4.403930   -0.495940 H         1 <1>         0.134500 
     42 H           6.803694    3.619999    1.054680 H         1 <1>         0.133900 
     43 H           4.504788    2.690035    1.433012 H         1 <1>         0.144500 
@<TRIPOS>BOND
     1   25   42 1    
     2   27   43 1    
     3    1   28 1    
     4   25   24 ar   
     5   26   25 ar   
     6   24   41 1    
     7   27   26 ar   
     8   18   27 ar   
     9   16   17 1    
    10   17   18 1    
    11   13   35 1    
    12   24   23 ar   
    13    1   29 1    
    14    2    1 1    
    15    1   30 1    
    16   26   21 ar   
    17   14   36 1    
    18   15   16 ar   
    19   16    2 ar   
    20   18   19 ar   
    21   14   13 ar   
    22   13   10 ar   
    23    5   15 ar   
    24    3    2 ar   
    25    7   14 ar   
    26   11   12 3    
    27   10   11 1    
    28   10    9 ar   
    29    6    5 1    
    30    5    4 ar   
    31    3   31 1    
    32    4    3 ar   
    33    7    6 1    
    34    7    8 ar   
    35    6   32 1    
    36    9    8 ar   
    37    9   34 1    
    38    8   33 1    
    39   23   40 1    
    40   23   22 ar   
    41   21   22 ar   
    42   21   20 ar   
    43   19   37 1    
    44   19   20 ar   
    45   22   39 1    
    46   20   38 1    
@<TRIPOS>SUBSTRUCTURE
     1 ****       12 TEMP              0 ****  ****    0 ROOT 
