#	Name:			WHQ-2014-SQER-761-22
#	Creating user name:	Administrator
#	Creation time:		Sun Jul 05 16:18:24 2020

#	Modifying user name:	Administrator
#	Modification time:	Sun Jul 05 16:19:33 2020

@<TRIPOS>MOLECULE
WHQ-2014-SQER-761-22
   43    46     1     0     0
SMALL
MULLIKEN_CHARGES
INVALID_CHARGES
Gaussian 16 #p B3LYP/6-31G* opt
@<TRIPOS>ATOM
      1 C           0.994554    4.326227    0.327263 C.3       1 <1>        -0.521500 
      2 C           0.250300    3.021340    0.291969 C.ar      1 <1>         0.085500 
      3 C          -1.121032    2.910266    0.076118 C.ar      1 <1>         0.014200 
      4 N          -1.796907    1.756519    0.059066 N.ar      1 <1>        -0.494900 
      5 C          -1.061808    0.653564    0.272462 C.ar      1 <1>         0.691500 
      6 N          -1.792322   -0.517538    0.250842 N.pl3     1 <1>        -0.768600 
      7 C          -1.439846   -1.853995    0.430134 C.ar      1 <1>         0.381500 
      8 C          -0.136515   -2.302249    0.717268 C.ar      1 <1>        -0.163000 
      9 C           0.107359   -3.660086    0.879426 C.ar      1 <1>        -0.158300 
     10 C          -0.924962   -4.605353    0.761748 C.ar      1 <1>         0.130400 
     11 C          -0.657607   -6.000840    0.928829 C.1       1 <1>         0.226200 
     12 N          -0.439418   -7.136521    1.063358 N.1       1 <1>        -0.487500 
     13 C          -2.226655   -4.155988    0.475815 C.ar      1 <1>        -0.141100 
     14 C          -2.476395   -2.803755    0.313664 C.ar      1 <1>        -0.204600 
     15 N           0.261061    0.614713    0.489354 N.ar      1 <1>        -0.549200 
     16 C           0.882611    1.783354    0.494277 C.ar      1 <1>         0.536000 
     17 O           2.229672    1.814192    0.693847 O.3       1 <1>        -0.559500 
     18 C           2.895991    0.639894    1.021630 C.ar      1 <1>         0.329400 
     19 C           3.456361   -0.127748   -0.022387 C.ar      1 <1>        -0.150100 
     20 C           4.191370   -1.249275    0.272384 C.ar      1 <1>        -0.204900 
     21 C           4.400544   -1.651884    1.618141 C.ar      1 <1>         0.150700 
     22 C           5.155159   -2.812813    1.935581 C.ar      1 <1>        -0.198000 
     23 C           5.353146   -3.194688    3.242120 C.ar      1 <1>        -0.128800 
     24 C           4.801935   -2.425116    4.293291 C.ar      1 <1>        -0.132400 
     25 C           4.065377   -1.293201    4.025003 C.ar      1 <1>        -0.185900 
     26 C           3.840799   -0.872128    2.687416 C.ar      1 <1>         0.087800 
     27 C           3.084560    0.285722    2.339830 C.ar      1 <1>        -0.011000 
     28 BR          2.304701    1.382199    3.690418 Br        1 <1>        -0.103600 
     29 H           1.755665    4.379285   -0.460367 H         1 <1>         0.171000 
     30 H           1.516193    4.456954    1.282360 H         1 <1>         0.179400 
     31 H           0.306260    5.166574    0.192500 H         1 <1>         0.156200 
     32 H          -1.713615    3.809431   -0.090210 H         1 <1>         0.148700 
     33 H          -2.771239   -0.334146    0.069979 H         1 <1>         0.347700 
     34 H           0.666810   -1.586955    0.810799 H         1 <1>         0.196400 
     35 H           1.115364   -3.995140    1.102963 H         1 <1>         0.158600 
     36 H          -3.035837   -4.872949    0.382168 H         1 <1>         0.156600 
     37 H          -3.487084   -2.468645    0.092383 H         1 <1>         0.136600 
     38 H           3.290247    0.193107   -1.045377 H         1 <1>         0.151500 
     39 H           4.623781   -1.844813   -0.526815 H         1 <1>         0.146300 
     40 H           5.574289   -3.396408    1.119666 H         1 <1>         0.140000 
     41 H           5.930497   -4.086210    3.469632 H         1 <1>         0.141000 
     42 H           4.959770   -2.731310    5.323579 H         1 <1>         0.141100 
     43 H           3.643251   -0.708793    4.834548 H         1 <1>         0.158400 
@<TRIPOS>BOND
     1   20   39 1    
     2   19   38 1    
     3   19   20 ar   
     4   20   21 ar   
     5   18   19 ar   
     6   22   40 1    
     7    1   29 1    
     8   21   22 ar   
     9   22   23 ar   
    10   26   21 ar   
    11   17   18 1    
    12   18   27 ar   
    13   16   17 1    
    14    1   31 1    
    15    2    1 1    
    16    1   30 1    
    17   16    2 ar   
    18   15   16 ar   
    19    3    2 ar   
    20    5   15 ar   
    21    9   35 1    
    22    8   34 1    
    23   23   41 1    
    24   23   24 ar   
    25    8    9 ar   
    26    7    8 ar   
    27    9   10 ar   
    28    3   32 1    
    29    4    3 ar   
    30   27   26 ar   
    31   26   25 ar   
    32    5    4 ar   
    33    6    5 1    
    34   27   28 1    
    35   11   12 3    
    36   10   11 1    
    37   10   13 ar   
    38    7    6 1    
    39    7   14 ar   
    40    6   33 1    
    41   13   14 ar   
    42   13   36 1    
    43   14   37 1    
    44   24   25 ar   
    45   24   42 1    
    46   25   43 1    
@<TRIPOS>SUBSTRUCTURE
     1 ****       12 TEMP              0 ****  ****    0 ROOT 
