#	Name:			WHQ-2014-SQER-761-55
#	Creating user name:	Administrator
#	Creation time:		Sun Jul 05 16:18:29 2020

#	Modifying user name:	Administrator
#	Modification time:	Sun Jul 05 16:19:33 2020

@<TRIPOS>MOLECULE
WHQ-2014-SQER-761-55
   46    49     1     0     0
SMALL
MULLIKEN_CHARGES
INVALID_CHARGES
Gaussian 16 #p B3LYP/6-31G* opt
@<TRIPOS>ATOM
      1 C          -1.355004    5.421837   -0.144312 C.3       1 <1>        -0.301400 
      2 N          -1.872432    4.069932   -0.130359 N.pl3     1 <1>        -0.637500 
      3 C          -1.126540    2.955306    0.076275 C.ar      1 <1>         0.573200 
      4 C           0.261605    3.000878    0.285737 C.ar      1 <1>        -0.279400 
      5 C           0.874158    1.765182    0.477966 C.ar      1 <1>         0.575000 
      6 O           2.216965    1.797688    0.716153 O.3       1 <1>        -0.571600 
      7 C           2.993557    0.649505    0.743290 C.ar      1 <1>         0.364500 
      8 C           3.867060    0.533104    1.850171 C.ar      1 <1>        -0.165700 
      9 C           4.744866   -0.521812    1.920661 C.ar      1 <1>        -0.196800 
     10 C           4.786383   -1.503606    0.894013 C.ar      1 <1>         0.141400 
     11 C           5.677163   -2.602414    0.942608 C.ar      1 <1>        -0.213700 
     12 C           5.698236   -3.541500   -0.076150 C.ar      1 <1>         0.129700 
     13 C           6.604559   -4.650109   -0.015044 C.1       1 <1>         0.234800 
     14 N           7.337459   -5.552956    0.028000 N.1       1 <1>        -0.479200 
     15 C           4.818225   -3.409221   -1.190402 C.ar      1 <1>        -0.142900 
     16 C           3.946229   -2.351570   -1.255305 C.ar      1 <1>        -0.196500 
     17 C           3.898576   -1.371262   -0.224718 C.ar      1 <1>         0.135500 
     18 C           3.007352   -0.271117   -0.280067 C.ar      1 <1>        -0.212900 
     19 N           0.237796    0.603112    0.471421 N.ar      1 <1>        -0.587900 
     20 C          -1.095012    0.684433    0.262532 C.ar      1 <1>         0.716400 
     21 N          -1.705340   -0.555716    0.273969 N.pl3     1 <1>        -0.778300 
     22 C          -3.028959   -0.959579    0.112752 C.ar      1 <1>         0.384500 
     23 C          -4.102356   -0.085964   -0.143106 C.ar      1 <1>        -0.155500 
     24 C          -5.387094   -0.592655   -0.291454 C.ar      1 <1>        -0.153200 
     25 C          -5.642919   -1.970135   -0.191394 C.ar      1 <1>         0.130700 
     26 C          -6.971563   -2.477338   -0.346919 C.1       1 <1>         0.226400 
     27 N          -8.053023   -2.889635   -0.473684 N.1       1 <1>        -0.485300 
     28 C          -4.569590   -2.842270    0.064175 C.ar      1 <1>        -0.140600 
     29 C          -3.286771   -2.342710    0.213050 C.ar      1 <1>        -0.206000 
     30 N          -1.812057    1.785528    0.063881 N.ar      1 <1>        -0.593100 
     31 H          -0.896408    5.692188    0.816126 H         1 <1>         0.170300 
     32 H          -0.607249    5.560615   -0.936030 H         1 <1>         0.170700 
     33 H          -2.181918    6.109254   -0.333100 H         1 <1>         0.169900 
     34 H          -2.860783    3.910495   -0.257698 H         1 <1>         0.339400 
     35 H           0.835921    3.916472    0.302548 H         1 <1>         0.148400 
     36 H           3.824128    1.289950    2.626503 H         1 <1>         0.152100 
     37 H           5.418055   -0.616296    2.768538 H         1 <1>         0.147200 
     38 H           6.349898   -2.706612    1.788785 H         1 <1>         0.160000 
     39 H           4.849592   -4.153202   -1.979569 H         1 <1>         0.158500 
     40 H           3.275857   -2.251185   -2.104758 H         1 <1>         0.145100 
     41 H           2.334786   -0.165164   -1.123382 H         1 <1>         0.151900 
     42 H          -1.035055   -1.292803    0.451711 H         1 <1>         0.347500 
     43 H          -3.911996    0.974119   -0.220327 H         1 <1>         0.173700 
     44 H          -6.209940    0.087540   -0.488510 H         1 <1>         0.154500 
     45 H          -4.749950   -3.909282    0.144859 H         1 <1>         0.158300 
     46 H          -2.465412   -3.027516    0.411260 H         1 <1>         0.137700 
@<TRIPOS>BOND
     1   16   40 1    
     2   15   39 1    
     3    1   32 1    
     4   16   15 ar   
     5   17   16 ar   
     6   18   41 1    
     7   15   12 ar   
     8    1   33 1    
     9    2    1 1    
    10    1   31 1    
    11   18   17 ar   
    12    7   18 ar   
    13    2   34 1    
    14   17   10 ar   
    15    3    2 1    
    16   12   13 1    
    17   12   11 ar   
    18   24   44 1    
    19    3   30 ar   
    20    4    3 ar   
    21   23   43 1    
    22    4   35 1    
    23   13   14 3    
    24   20   30 ar   
    25    5    4 ar   
    26   23   24 ar   
    27   24   25 ar   
    28   22   23 ar   
    29   26   27 3    
    30   25   26 1    
    31   19   20 ar   
    32   20   21 1    
    33    5   19 ar   
    34    6    5 1    
    35   25   28 ar   
    36   21   22 1    
    37   22   29 ar   
    38   21   42 1    
    39    6    7 1    
    40    7    8 ar   
    41   28   29 ar   
    42   28   45 1    
    43   29   46 1    
    44   10   11 ar   
    45   10    9 ar   
    46   11   38 1    
    47    8    9 ar   
    48    8   36 1    
    49    9   37 1    
@<TRIPOS>SUBSTRUCTURE
     1 ****       27 TEMP              0 ****  ****    0 ROOT 
