#	Name:			WHQ-2014-SQER-761-61
#	Creating user name:	Administrator
#	Creation time:		Sun Jul 05 16:18:30 2020

#	Modifying user name:	Administrator
#	Modification time:	Sun Jul 05 16:19:33 2020

@<TRIPOS>MOLECULE
WHQ-2014-SQER-761-61
   51    54     1     0     0
SMALL
MULLIKEN_CHARGES
INVALID_CHARGES
Gaussian 16 #p B3LYP/6-31G* opt
@<TRIPOS>ATOM
      1 C           1.062015    5.015832    1.663247 C.3       1 <1>        -0.442200 
      2 C           1.051520    4.313197    0.291637 C.3       1 <1>        -0.355100 
      3 C           0.271454    3.020057    0.273902 C.ar      1 <1>         0.040800 
      4 C          -1.130499    2.949598    0.080219 C.ar      1 <1>         0.525500 
      5 N          -1.867329    4.076907   -0.126039 N.pl3     1 <1>        -0.648800 
      6 C          -3.311823    4.074477   -0.273692 C.3       1 <1>        -0.289300 
      7 N          -1.811953    1.783248    0.068274 N.ar      1 <1>        -0.600400 
      8 C          -1.091882    0.680893    0.263638 C.ar      1 <1>         0.710200 
      9 N          -1.701129   -0.562382    0.265938 N.pl3     1 <1>        -0.781300 
     10 C          -3.020639   -0.967748    0.094691 C.ar      1 <1>         0.384900 
     11 C          -4.097957   -0.092123   -0.140222 C.ar      1 <1>        -0.162100 
     12 C          -5.380870   -0.599311   -0.299938 C.ar      1 <1>        -0.157000 
     13 C          -5.632781   -1.979863   -0.231889 C.ar      1 <1>         0.129900 
     14 C          -6.959205   -2.487959   -0.399392 C.1       1 <1>         0.224900 
     15 N          -8.039177   -2.901608   -0.536141 N.1       1 <1>        -0.488100 
     16 C          -4.556184   -2.853846    0.003921 C.ar      1 <1>        -0.141300 
     17 C          -3.275024   -2.354128    0.163783 C.ar      1 <1>        -0.205200 
     18 N           0.232668    0.609593    0.479854 N.ar      1 <1>        -0.586900 
     19 C           0.866823    1.776546    0.482305 C.ar      1 <1>         0.521500 
     20 O           2.216092    1.778858    0.713805 O.3       1 <1>        -0.571600 
     21 C           2.902242    0.582978    0.825976 C.ar      1 <1>         0.371300 
     22 C           3.115301   -0.213944   -0.322785 C.ar      1 <1>        -0.133200 
     23 C           3.885921   -1.345393   -0.241302 C.ar      1 <1>        -0.208400 
     24 C           4.485403   -1.734447    0.986481 C.ar      1 <1>         0.152900 
     25 C           5.288169   -2.901352    1.084155 C.ar      1 <1>        -0.196500 
     26 C           5.866386   -3.267712    2.277862 C.ar      1 <1>        -0.131000 
     27 C           5.663970   -2.474925    3.431347 C.ar      1 <1>        -0.133600 
     28 C           4.892434   -1.335250    3.375207 C.ar      1 <1>        -0.194800 
     29 C           4.281825   -0.930946    2.158462 C.ar      1 <1>         0.125500 
     30 C           3.468714    0.236105    2.034640 C.ar      1 <1>        -0.203500 
     31 CL          3.178551    1.257725    3.430347 Cl        1 <1>         0.006900 
     32 H           0.047500    5.247337    2.009789 H         1 <1>         0.136600 
     33 H           1.529957    4.373562    2.415923 H         1 <1>         0.173600 
     34 H           1.625952    5.954670    1.616541 H         1 <1>         0.147000 
     35 H           0.653596    4.995400   -0.473691 H         1 <1>         0.131300 
     36 H           2.083230    4.104569   -0.005952 H         1 <1>         0.172300 
     37 H          -1.407002    4.962591    0.004203 H         1 <1>         0.338100 
     38 H          -3.816089    3.690639    0.621767 H         1 <1>         0.171200 
     39 H          -3.613894    3.457853   -1.125768 H         1 <1>         0.179500 
     40 H          -3.639427    5.101663   -0.451615 H         1 <1>         0.153600 
     41 H          -1.028354   -1.298626    0.438252 H         1 <1>         0.347100 
     42 H          -3.910435    0.970045   -0.191641 H         1 <1>         0.188200 
     43 H          -6.205966    0.082724   -0.480572 H         1 <1>         0.152300 
     44 H          -4.733139   -3.923143    0.060256 H         1 <1>         0.155700 
     45 H          -2.451235   -3.040500    0.345797 H         1 <1>         0.136100 
     46 H           2.658182    0.095280   -1.256400 H         1 <1>         0.148200 
     47 H           4.050911   -1.958305   -1.123279 H         1 <1>         0.140400 
     48 H           5.437357   -3.502753    0.190663 H         1 <1>         0.135100 
     49 H           6.478006   -4.163598    2.337517 H         1 <1>         0.135600 
     50 H           6.121952   -2.767626    4.372103 H         1 <1>         0.137000 
     51 H           4.742650   -0.733874    4.264431 H         1 <1>         0.157300 
@<TRIPOS>BOND
     1   23   47 1    
     2   22   46 1    
     3   25   48 1    
     4   22   23 ar   
     5   23   24 ar   
     6   21   22 ar   
     7    2   35 1    
     8    2   36 1    
     9   24   25 ar   
    10   25   26 ar   
    11   24   29 ar   
    12    6   39 1    
    13   20   21 1    
    14   21   30 ar   
    15    3    2 1    
    16    2    1 1    
    17   19   20 1    
    18    3   19 ar   
    19    4    3 ar   
    20   19   18 ar   
    21   18    8 ar   
    22    5    4 1    
    23    4    7 ar   
    24    5   37 1    
    25    5    6 1    
    26    8    7 ar   
    27    8    9 1    
    28   26   49 1    
    29    6   40 1    
    30    9   41 1    
    31    9   10 1    
    32    6   38 1    
    33   26   27 ar   
    34   10   11 ar   
    35   10   17 ar   
    36   11   42 1    
    37   17   45 1    
    38   11   12 ar   
    39   17   16 ar   
    40   12   43 1    
    41   12   13 ar   
    42   16   13 ar   
    43   16   44 1    
    44   29   30 ar   
    45   29   28 ar   
    46   13   14 1    
    47   30   31 1    
    48   14   15 3    
    49    1   34 1    
    50    1   32 1    
    51    1   33 1    
    52   27   28 ar   
    53   27   50 1    
    54   28   51 1    
@<TRIPOS>SUBSTRUCTURE
     1 ****       35 TEMP              0 ****  ****    0 ROOT 
