#	Name:			WHQ-2014-SQER-761-36
#	Creating user name:	Administrator
#	Creation time:		Sun Jul 05 16:18:26 2020

#	Modifying user name:	Administrator
#	Modification time:	Sun Jul 05 16:19:33 2020

@<TRIPOS>MOLECULE
WHQ-2014-SQER-761-36
   43    46     1     0     0
SMALL
MULLIKEN_CHARGES
INVALID_CHARGES
Gaussian 16 #p B3LYP/6-31G* opt
@<TRIPOS>ATOM
      1 C           0.919781    4.403828    0.394620 C.3       1 <1>        -0.542400 
      2 C           0.229492    3.068915    0.305550 C.ar      1 <1>         0.133700 
      3 C          -1.142109    2.922464    0.073329 C.ar      1 <1>         0.070900 
      4 CL         -2.135276    4.349674   -0.211126 Cl        1 <1>         0.014200 
      5 N          -1.810469    1.779798    0.043540 N.ar      1 <1>        -0.485200 
      6 C          -1.079875    0.682720    0.265963 C.ar      1 <1>         0.699600 
      7 N          -1.674934   -0.557983    0.294852 N.pl3     1 <1>        -0.770700 
      8 C          -2.999911   -0.970367    0.137387 C.ar      1 <1>         0.382000 
      9 C          -4.079972   -0.101743   -0.104964 C.ar      1 <1>        -0.162900 
     10 C          -5.361993   -0.618862   -0.245165 C.ar      1 <1>        -0.153700 
     11 C          -5.605245   -1.998872   -0.149932 C.ar      1 <1>         0.131800 
     12 C          -6.930847   -2.517597   -0.296400 C.1       1 <1>         0.228100 
     13 N          -8.008465   -2.941749   -0.415119 N.1       1 <1>        -0.484100 
     14 C          -4.523883   -2.864443    0.092092 C.ar      1 <1>        -0.140300 
     15 C          -3.243767   -2.355394    0.232919 C.ar      1 <1>        -0.205300 
     16 N           0.246615    0.653529    0.464530 N.ar      1 <1>        -0.534900 
     17 C           0.874234    1.816467    0.457632 C.ar      1 <1>         0.490500 
     18 O           2.208620    1.670500    0.722540 O.3       1 <1>        -0.539800 
     19 C           3.229819    2.465016    0.242768 C.ar      1 <1>         0.314100 
     20 C           4.162118    2.884469    1.223955 C.ar      1 <1>        -0.168500 
     21 C           5.269639    3.607640    0.865654 C.ar      1 <1>        -0.193800 
     22 C           5.506460    3.954591   -0.490717 C.ar      1 <1>         0.147200 
     23 C           6.643375    4.713372   -0.873185 C.ar      1 <1>        -0.193900 
     24 C           6.867662    5.040296   -2.190654 C.ar      1 <1>        -0.130800 
     25 C           5.955106    4.616584   -3.183872 C.ar      1 <1>        -0.130700 
     26 C           4.841400    3.878221   -2.849618 C.ar      1 <1>        -0.191300 
     27 C           4.580109    3.523731   -1.499389 C.ar      1 <1>         0.095100 
     28 C           3.445851    2.755852   -1.090270 C.ar      1 <1>        -0.021400 
     29 BR          2.217822    2.117523   -2.403375 Br        1 <1>        -0.093400 
     30 H           1.363429    4.690623   -0.566349 H         1 <1>         0.186300 
     31 H           1.719663    4.390884    1.138529 H         1 <1>         0.172500 
     32 H           0.207749    5.180647    0.678163 H         1 <1>         0.185300 
     33 H          -0.996914   -1.291211    0.460040 H         1 <1>         0.351900 
     34 H          -3.905255    0.961642   -0.181418 H         1 <1>         0.198000 
     35 H          -6.190870    0.056544   -0.432130 H         1 <1>         0.160600 
     36 H          -4.695396   -3.933313    0.168178 H         1 <1>         0.158700 
     37 H          -2.415042   -3.034364    0.419945 H         1 <1>         0.138600 
     38 H           3.966148    2.609660    2.255171 H         1 <1>         0.157800 
     39 H           5.980437    3.927895    1.622425 H         1 <1>         0.146800 
     40 H           7.336538    5.031888   -0.098533 H         1 <1>         0.139100 
     41 H           7.741494    5.621759   -2.469945 H         1 <1>         0.140000 
     42 H           6.132980    4.876404   -4.223666 H         1 <1>         0.141400 
     43 H           4.148076    3.559529   -3.619143 H         1 <1>         0.158900 
@<TRIPOS>BOND
     1   20   38 1    
     2   21   39 1    
     3   20   21 ar   
     4   19   20 ar   
     5   21   22 ar   
     6   18   19 1    
     7   17   18 1    
     8    1   31 1    
     9   23   40 1    
    10   19   28 ar   
    11    7   33 1    
    12   15   37 1    
    13   17   16 ar   
    14   16    6 ar   
    15    2   17 ar   
    16    6    7 1    
    17    7    8 1    
    18   22   23 ar   
    19   22   27 ar   
    20    8   15 ar   
    21   15   14 ar   
    22    6    5 ar   
    23   14   36 1    
    24    2    1 1    
    25    2    3 ar   
    26   23   24 ar   
    27    1   32 1    
    28    1   30 1    
    29    8    9 ar   
    30   14   11 ar   
    31    5    3 ar   
    32    3    4 1    
    33   28   27 ar   
    34   28   29 1    
    35    9   34 1    
    36    9   10 ar   
    37   11   10 ar   
    38   11   12 1    
    39   27   26 ar   
    40   10   35 1    
    41   12   13 3    
    42   24   41 1    
    43   24   25 ar   
    44   26   25 ar   
    45   26   43 1    
    46   25   42 1    
@<TRIPOS>SUBSTRUCTURE
     1 ****       37 TEMP              0 ****  ****    0 ROOT 
