#	Name:			WHQ-2015-BMC-624-3-3h
#	Creating user name:	Administrator
#	Creation time:		Sun Jul 05 16:18:34 2020

#	Modifying user name:	Administrator
#	Modification time:	Sun Jul 05 16:19:33 2020

@<TRIPOS>MOLECULE
WHQ-2015-BMC-624-3-3h
   44    46     1     0     0
SMALL
MULLIKEN_CHARGES
INVALID_CHARGES
Gaussian 16 #p B3LYP/6-31G* opt
@<TRIPOS>ATOM
      1 C          -1.940885    4.198291   -0.158749 C.3       1 <1>        -0.514500 
      2 C          -1.126081    2.955257    0.072978 C.ar      1 <1>         0.345300 
      3 C           0.243668    3.003282    0.287448 C.ar      1 <1>        -0.260000 
      4 C           0.880592    1.767606    0.490206 C.ar      1 <1>         0.613100 
      5 O           2.214671    1.782354    0.701592 O.3       1 <1>        -0.537200 
      6 C           2.879389    0.526381    0.910664 C.3       1 <1>        -0.107600 
      7 C           4.377092    0.736162    1.133885 C.2       1 <1>         0.575600 
      8 O           5.078861   -0.247700    1.326086 O.2       1 <1>        -0.503800 
      9 N           4.796430    2.033857    1.096312 N.am      1 <1>        -0.722100 
     10 C           6.102486    2.545145    1.264466 C.ar      1 <1>         0.358000 
     11 C           6.266249    3.935981    1.176735 C.ar      1 <1>        -0.195100 
     12 C           7.521888    4.516567    1.331245 C.ar      1 <1>        -0.200800 
     13 C           8.614013    3.692451    1.574662 C.ar      1 <1>         0.382700 
     14 F           9.835613    4.248111    1.725867 F         1 <1>        -0.298800 
     15 C           8.477032    2.313252    1.665726 C.ar      1 <1>        -0.213100 
     16 C           7.219296    1.731419    1.510983 C.ar      1 <1>        -0.159500 
     17 N           0.241564    0.611234    0.482972 N.ar      1 <1>        -0.588200 
     18 C          -1.093864    0.682447    0.264226 C.ar      1 <1>         0.706400 
     19 N          -1.701962   -0.554223    0.268520 N.pl3     1 <1>        -0.770900 
     20 C          -3.028913   -0.950793    0.089351 C.ar      1 <1>         0.381700 
     21 C          -4.096575   -0.067133   -0.153200 C.ar      1 <1>        -0.158600 
     22 C          -5.382272   -0.567614   -0.317254 C.ar      1 <1>        -0.153500 
     23 C          -5.641846   -1.946023   -0.245874 C.ar      1 <1>         0.132000 
     24 C          -6.971356   -2.446906   -0.416907 C.1       1 <1>         0.228000 
     25 N          -8.052715   -2.854895   -0.555937 N.1       1 <1>        -0.483400 
     26 C          -4.573079   -2.826994   -0.003366 C.ar      1 <1>        -0.140300 
     27 C          -3.289243   -2.334274    0.161127 C.ar      1 <1>        -0.205900 
     28 N          -1.807014    1.788453    0.059994 N.ar      1 <1>        -0.542000 
     29 H          -2.445598    4.141101   -1.129559 H         1 <1>         0.182000 
     30 H          -2.722441    4.282978    0.604662 H         1 <1>         0.182000 
     31 H          -1.323357    5.099931   -0.133885 H         1 <1>         0.159600 
     32 H           0.802138    3.930817    0.300536 H         1 <1>         0.144200 
     33 H           2.463180    0.014458    1.783148 H         1 <1>         0.195300 
     34 H           2.742201   -0.127408    0.044500 H         1 <1>         0.195300 
     35 H           4.066948    2.714190    0.924135 H         1 <1>         0.355100 
     36 H           5.404136    4.571315    0.985798 H         1 <1>         0.131800 
     37 H           7.659392    5.590595    1.265366 H         1 <1>         0.149600 
     38 H           9.352113    1.700846    1.856860 H         1 <1>         0.153100 
     39 H           7.093045    0.660007    1.578448 H         1 <1>         0.195100 
     40 H          -1.037359   -1.298873    0.435482 H         1 <1>         0.347000 
     41 H          -3.902873    0.994031   -0.209132 H         1 <1>         0.186700 
     42 H          -6.201877    0.119159   -0.504179 H         1 <1>         0.158300 
     43 H          -4.757208   -3.894814    0.054745 H         1 <1>         0.159500 
     44 H          -2.470689   -3.025500    0.348249 H         1 <1>         0.138200 
@<TRIPOS>BOND
     1    6   34 1    
     2    1   29 1    
     3    7    8 2    
     4    6    5 1    
     5    7    6 1    
     6    6   33 1    
     7    5    4 1    
     8    9    7 1    
     9    4   17 ar   
    10    4    3 ar   
    11    3   32 1    
    12   17   18 ar   
    13    3    2 ar   
    14   19   40 1    
    15   18   19 1    
    16   18   28 ar   
    17    9   35 1    
    18   10    9 1    
    19    2   28 ar   
    20    2    1 1    
    21   11   36 1    
    22   19   20 1    
    23    1   31 1    
    24   27   44 1    
    25    1   30 1    
    26   20   27 ar   
    27   20   21 ar   
    28   27   26 ar   
    29   11   10 ar   
    30   11   12 ar   
    31   10   16 ar   
    32   21   41 1    
    33   21   22 ar   
    34   26   43 1    
    35   26   23 ar   
    36   16   39 1    
    37   16   15 ar   
    38   12   37 1    
    39   12   13 ar   
    40   22   23 ar   
    41   22   42 1    
    42   23   24 1    
    43   24   25 3    
    44   15   13 ar   
    45   15   38 1    
    46   13   14 1    
@<TRIPOS>SUBSTRUCTURE
     1 ****       36 TEMP              0 ****  ****    0 ROOT 
