#	Name:			WHQ-2014-SQER-761-10
#	Creating user name:	Administrator
#	Creation time:		Sun Jul 05 16:18:22 2020

#	Modifying user name:	Administrator
#	Modification time:	Sun Jul 05 16:19:33 2020

@<TRIPOS>MOLECULE
WHQ-2014-SQER-761-10
   40    43     1     0     0
SMALL
MULLIKEN_CHARGES
INVALID_CHARGES
Gaussian 16 #p B3LYP/6-31G* opt
@<TRIPOS>ATOM
      1 N          -8.047909   -2.865889   -0.574938 N.1       1 <1>        -0.484400 
      2 C          -6.967787   -2.455332   -0.433247 C.1       1 <1>         0.227700 
      3 C          -5.639678   -1.952159   -0.258821 C.ar      1 <1>         0.131600 
      4 C          -5.382867   -0.572847   -0.323571 C.ar      1 <1>        -0.153400 
      5 C          -4.098423   -0.070464   -0.156021 C.ar      1 <1>        -0.159100 
      6 C          -3.029166   -0.953155    0.083311 C.ar      1 <1>         0.381700 
      7 N          -1.703643   -0.554770    0.266362 N.pl3     1 <1>        -0.767900 
      8 C          -1.097796    0.682554    0.264040 C.ar      1 <1>         0.700800 
      9 N          -1.815444    1.791002    0.058429 N.ar      1 <1>        -0.487500 
     10 C          -1.116943    2.938704    0.075542 C.ar      1 <1>         0.069700 
     11 C           0.248398    3.006054    0.287525 C.ar      1 <1>        -0.216700 
     12 C           0.880034    1.767277    0.492101 C.ar      1 <1>         0.569500 
     13 O           2.221600    1.789384    0.699693 O.3       1 <1>        -0.568700 
     14 C           2.902878    0.593941    0.948251 C.ar      1 <1>         0.296600 
     15 C           2.975174    0.111660    2.229902 C.ar      1 <1>        -0.153300 
     16 C           3.730331   -1.050868    2.498456 C.ar      1 <1>        -0.179900 
     17 C           4.392537   -1.691586    1.478395 C.ar      1 <1>         0.035300 
     18 BR          5.394913   -3.265805    1.911556 Br        1 <1>        -0.122000 
     19 C           4.352325   -1.215962    0.135558 C.ar      1 <1>         0.088900 
     20 C           5.026341   -1.839807   -0.947552 C.ar      1 <1>        -0.191200 
     21 C           4.948503   -1.323801   -2.221015 C.ar      1 <1>        -0.129300 
     22 C           4.195136   -0.154895   -2.478434 C.ar      1 <1>        -0.130600 
     23 C           3.527562    0.477579   -1.455289 C.ar      1 <1>        -0.187400 
     24 C           3.581860   -0.031887   -0.131445 C.ar      1 <1>         0.120200 
     25 N           0.235369    0.616203    0.484244 N.ar      1 <1>        -0.556600 
     26 C          -3.286631   -2.337693    0.148269 C.ar      1 <1>        -0.205800 
     27 C          -4.569241   -2.832194   -0.019525 C.ar      1 <1>        -0.140500 
     28 H          -6.203581    0.113273   -0.507970 H         1 <1>         0.158400 
     29 H          -3.907625    0.991694   -0.207162 H         1 <1>         0.190100 
     30 H          -1.035789   -1.297640    0.429960 H         1 <1>         0.350300 
     31 H          -1.695309    3.845303   -0.090472 H         1 <1>         0.157900 
     32 H           0.802659    3.935686    0.301507 H         1 <1>         0.159300 
     33 H           2.452625    0.623354    3.031088 H         1 <1>         0.151000 
     34 H           3.786770   -1.435741    3.510375 H         1 <1>         0.160900 
     35 H           5.607905   -2.733364   -0.751364 H         1 <1>         0.160100 
     36 H           5.472612   -1.816875   -3.034850 H         1 <1>         0.140600 
     37 H           4.146088    0.244898   -3.487365 H         1 <1>         0.139700 
     38 H           2.956508    1.380083   -1.643282 H         1 <1>         0.146500 
     39 H          -2.466556   -3.027781    0.332514 H         1 <1>         0.138700 
     40 H          -4.751228   -3.900609    0.033182 H         1 <1>         0.158600 
@<TRIPOS>BOND
     1   21   36 1    
     2   22   37 1    
     3   22   21 ar   
     4   20   21 ar   
     5   23   22 ar   
     6   20   35 1    
     7   19   20 ar   
     8   23   38 1    
     9   24   23 ar   
    10   24   19 ar   
    11   19   17 ar   
    12    2    1 3    
    13   14   24 ar   
    14   27   40 1    
    15    3    2 1    
    16   27    3 ar   
    17   26   27 ar   
    18    4    3 ar   
    19   26   39 1    
    20    6   26 ar   
    21    4   28 1    
    22    5    4 ar   
    23    6    5 ar   
    24    7    6 1    
    25    5   29 1    
    26    7   30 1    
    27    8    7 1    
    28    8    9 ar   
    29   25    8 ar   
    30   10    9 ar   
    31   12   25 ar   
    32   17   18 1    
    33   17   16 ar   
    34   13   12 1    
    35   12   11 ar   
    36   10   31 1    
    37   11   10 ar   
    38   14   13 1    
    39   14   15 ar   
    40   11   32 1    
    41   16   15 ar   
    42   16   34 1    
    43   15   33 1    
@<TRIPOS>SUBSTRUCTURE
     1 ****       36 TEMP              0 ****  ****    0 ROOT 
