#	Name:			WHQ-2015-BMC-624-3-3m
#	Creating user name:	Administrator
#	Creation time:		Sun Jul 05 16:18:35 2020

#	Modifying user name:	Administrator
#	Modification time:	Sun Jul 05 16:19:33 2020

@<TRIPOS>MOLECULE
WHQ-2015-BMC-624-3-3m
   45    47     1     0     0
SMALL
MULLIKEN_CHARGES
INVALID_CHARGES
Gaussian 16 #p B3LYP/6-31G* opt
@<TRIPOS>ATOM
      1 C          -1.937030    4.198587   -0.159429 C.3       1 <1>        -0.514400 
      2 C          -1.123131    2.955415    0.073692 C.ar      1 <1>         0.344100 
      3 C           0.245687    3.001469    0.285921 C.ar      1 <1>        -0.256900 
      4 C           0.882368    1.765295    0.489804 C.ar      1 <1>         0.605300 
      5 O           2.212677    1.790593    0.700628 O.3       1 <1>        -0.485400 
      6 C           2.873816    0.546126    0.882443 C.3       1 <1>        -0.120500 
      7 C           4.379281    0.820289    0.795624 C.2       1 <1>         0.611200 
      8 O           4.846076    1.647085    0.035619 O.2       1 <1>        -0.471900 
      9 N           5.119736   -0.006237    1.617405 N.am      1 <1>        -0.727900 
     10 C           6.518171   -0.122618    1.718158 C.ar      1 <1>         0.374400 
     11 C           7.411028    0.656363    0.962956 C.ar      1 <1>        -0.165800 
     12 C           8.780106    0.475057    1.121104 C.ar      1 <1>        -0.152300 
     13 C           9.286097   -0.472700    2.025563 C.ar      1 <1>         0.135600 
     14 C          10.698823   -0.649359    2.180174 C.1       1 <1>         0.232600 
     15 N          11.846277   -0.795396    2.307646 N.1       1 <1>        -0.477000 
     16 C           8.388281   -1.246917    2.779765 C.ar      1 <1>        -0.139900 
     17 C           7.021654   -1.071518    2.624844 C.ar      1 <1>        -0.201800 
     18 N           0.240617    0.608079    0.486223 N.ar      1 <1>        -0.598100 
     19 C          -1.094498    0.682436    0.264127 C.ar      1 <1>         0.704600 
     20 N          -1.705880   -0.554745    0.265474 N.pl3     1 <1>        -0.770700 
     21 C          -3.032842   -0.948086    0.084399 C.ar      1 <1>         0.382600 
     22 C          -4.099572   -0.061323   -0.151419 C.ar      1 <1>        -0.158800 
     23 C          -5.386351   -0.558472   -0.316669 C.ar      1 <1>        -0.153600 
     24 C          -5.648655   -1.936895   -0.253185 C.ar      1 <1>         0.131600 
     25 C          -6.979017   -2.435025   -0.424553 C.1       1 <1>         0.227600 
     26 N          -8.060918   -2.841740   -0.563436 N.1       1 <1>        -0.483700 
     27 C          -4.580961   -2.821181   -0.017893 C.ar      1 <1>        -0.140200 
     28 C          -3.296160   -2.331731    0.147688 C.ar      1 <1>        -0.206100 
     29 N          -1.806266    1.787870    0.062068 N.ar      1 <1>        -0.543400 
     30 H          -2.721432    4.282652    0.601231 H         1 <1>         0.179800 
     31 H          -2.438123    4.142928   -1.132334 H         1 <1>         0.181000 
     32 H          -1.318846    5.099557   -0.131375 H         1 <1>         0.162300 
     33 H           0.811675    3.924182    0.293431 H         1 <1>         0.157700 
     34 H           2.580115    0.097325    1.840041 H         1 <1>         0.154600 
     35 H           2.591446   -0.157288    0.090143 H         1 <1>         0.196300 
     36 H           4.596425   -0.614833    2.233415 H         1 <1>         0.337000 
     37 H           7.025555    1.389976    0.269675 H         1 <1>         0.202400 
     38 H           9.469406    1.076730    0.537538 H         1 <1>         0.166700 
     39 H           8.767371   -1.981830    3.482151 H         1 <1>         0.163500 
     40 H           6.334703   -1.676888    3.212210 H         1 <1>         0.137700 
     41 H          -1.042753   -1.301365    0.427104 H         1 <1>         0.341600 
     42 H          -3.903370    0.999815   -0.201464 H         1 <1>         0.187900 
     43 H          -6.204789    0.130988   -0.498359 H         1 <1>         0.158600 
     44 H          -4.766999   -3.889097    0.033572 H         1 <1>         0.158200 
     45 H          -2.478527   -3.025742    0.328910 H         1 <1>         0.133700 
@<TRIPOS>BOND
     1   17   40 1    
     2   16   39 1    
     3    1   30 1    
     4    6   34 1    
     5    9   36 1    
     6   17   16 ar   
     7   10   17 ar   
     8   16   13 ar   
     9    1   32 1    
    10    9   10 1    
    11    7    9 1    
    12    2    1 1    
    13    1   31 1    
    14    3   33 1    
    15    2    3 ar   
    16   29    2 ar   
    17    4    3 ar   
    18   10   11 ar   
    19   19   29 ar   
    20    4    5 1    
    21    5    6 1    
    22   18    4 ar   
    23   22   42 1    
    24   19   18 ar   
    25   20   19 1    
    26   23   43 1    
    27    6    7 1    
    28    6   35 1    
    29   22   23 ar   
    30   21   22 ar   
    31   13   14 1    
    32   13   12 ar   
    33   23   24 ar   
    34   20   21 1    
    35   20   41 1    
    36   21   28 ar   
    37   14   15 3    
    38   24   25 1    
    39   24   27 ar   
    40   25   26 3    
    41   28   27 ar   
    42   28   45 1    
    43   27   44 1    
    44    7    8 2    
    45   11   12 ar   
    46   11   37 1    
    47   12   38 1    
@<TRIPOS>SUBSTRUCTURE
     1 ****       30 TEMP              0 ****  ****    0 ROOT 
