#	Name:			WHQ-2014-SQER-761-74
#	Creating user name:	Administrator
#	Creation time:		Sun Jul 05 16:18:32 2020

#	Modifying user name:	Administrator
#	Modification time:	Sun Jul 05 16:19:33 2020

@<TRIPOS>MOLECULE
WHQ-2014-SQER-761-74
   44    47     1     0     0
SMALL
MULLIKEN_CHARGES
INVALID_CHARGES
Gaussian 16 #p B3LYP/6-31G* opt
@<TRIPOS>ATOM
      1 C           0.872017    4.423223    0.295851 C.3       1 <1>        -0.546600 
      2 C           0.230287    3.060266    0.273849 C.ar      1 <1>         0.123700 
      3 C          -1.144792    2.931569    0.080684 C.ar      1 <1>         0.015500 
      4 N          -1.825351    1.781090    0.064041 N.ar      1 <1>        -0.478500 
      5 C          -1.084447    0.686515    0.265041 C.ar      1 <1>         0.698800 
      6 N          -1.663832   -0.564543    0.285423 N.pl3     1 <1>        -0.768200 
      7 C          -2.983359   -0.990913    0.130721 C.ar      1 <1>         0.382600 
      8 C          -3.212891   -2.379618    0.213789 C.ar      1 <1>        -0.205900 
      9 C          -4.488327   -2.900467    0.073701 C.ar      1 <1>        -0.140400 
     10 C          -5.580100   -2.044171   -0.155143 C.ar      1 <1>         0.131200 
     11 C          -6.900925   -2.574762   -0.300843 C.1       1 <1>         0.227300 
     12 N          -7.975178   -3.007559   -0.419213 N.1       1 <1>        -0.484600 
     13 C          -5.351322   -0.660795   -0.237972 C.ar      1 <1>        -0.153300 
     14 C          -4.074269   -0.131928   -0.098411 C.ar      1 <1>        -0.160400 
     15 N           0.245890    0.661001    0.462184 N.ar      1 <1>        -0.538100 
     16 C           0.879684    1.818104    0.452415 C.ar      1 <1>         0.479200 
     17 O           2.214136    1.662407    0.744300 O.3       1 <1>        -0.537200 
     18 C           3.231211    2.501484    0.360402 C.ar      1 <1>         0.327800 
     19 C           4.076970    2.939883    1.410402 C.ar      1 <1>        -0.168300 
     20 C           5.181346    3.704888    1.142504 C.ar      1 <1>        -0.188700 
     21 C           5.500034    4.075115   -0.191597 C.ar      1 <1>         0.146100 
     22 C           6.632214    4.873824   -0.478048 C.ar      1 <1>        -0.217300 
     23 C           6.941522    5.227175   -1.780537 C.ar      1 <1>         0.138900 
     24 C           8.090587    6.038641   -2.056126 C.1       1 <1>         0.237500 
     25 N           9.021203    6.697709   -2.286221 N.1       1 <1>        -0.472000 
     26 C           6.113202    4.782708   -2.848487 C.ar      1 <1>        -0.138700 
     27 C           5.009272    4.006320   -2.594757 C.ar      1 <1>        -0.195900 
     28 C           4.663637    3.626709   -1.269018 C.ar      1 <1>         0.108700 
     29 C           3.531193    2.818389   -0.952347 C.ar      1 <1>        -0.028700 
     30 BR          2.413784    2.163337   -2.348467 Br        1 <1>        -0.081800 
     31 H           1.461204    4.610476   -0.608667 H         1 <1>         0.181300 
     32 H           1.534704    4.560214    1.156253 H         1 <1>         0.170700 
     33 H           0.095188    5.192587    0.350873 H         1 <1>         0.166800 
     34 H          -1.741540    3.831766   -0.063285 H         1 <1>         0.151400 
     35 H          -0.977374   -1.291029    0.444463 H         1 <1>         0.349800 
     36 H          -2.376341   -3.051767    0.390521 H         1 <1>         0.137800 
     37 H          -4.648343   -3.971756    0.140218 H         1 <1>         0.158300 
     38 H          -6.188432    0.007306   -0.414490 H         1 <1>         0.158100 
     39 H          -3.906453    0.933268   -0.163649 H         1 <1>         0.189000 
     40 H           3.817741    2.643784    2.421395 H         1 <1>         0.165400 
     41 H           5.825062    4.040081    1.950666 H         1 <1>         0.156200 
     42 H           7.262058    5.209926    0.340044 H         1 <1>         0.166100 
     43 H           6.363308    5.064788   -3.865845 H         1 <1>         0.166000 
     44 H           4.384398    3.673627   -3.414988 H         1 <1>         0.170200 
@<TRIPOS>BOND
     1    8   36 1    
     2    9   37 1    
     3    6   35 1    
     4    8    9 ar   
     5    7    8 ar   
     6    9   10 ar   
     7   19   40 1    
     8   17   18 1    
     9   16   17 1    
    10   20   41 1    
    11   19   20 ar   
    12   18   19 ar   
    13    6    7 1    
    14    5    6 1    
    15   15   16 ar   
    16   15    5 ar   
    17   20   21 ar   
    18   18   29 ar   
    19    7   14 ar   
    20   21   22 ar   
    21   21   28 ar   
    22   22   42 1    
    23   29   28 ar   
    24   29   30 1    
    25   22   23 ar   
    26   28   27 ar   
    27   16    2 ar   
    28   10   11 1    
    29   10   13 ar   
    30    5    4 ar   
    31   23   24 1    
    32   23   26 ar   
    33   27   26 ar   
    34   27   44 1    
    35   11   12 3    
    36   24   25 3    
    37   26   43 1    
    38   14   13 ar   
    39   14   39 1    
    40   13   38 1    
    41    4    3 ar   
    42    2    3 ar   
    43    2    1 1    
    44    1   32 1    
    45    3   34 1    
    46    1   31 1    
    47    1   33 1    
@<TRIPOS>SUBSTRUCTURE
     1 ****       40 TEMP              0 ****  ****    0 ROOT 
