#	Name:			WHQ-2014-SQER-761-69
#	Creating user name:	Administrator
#	Creation time:		Sun Jul 05 16:18:31 2020

#	Modifying user name:	Administrator
#	Modification time:	Sun Jul 05 16:19:33 2020

@<TRIPOS>MOLECULE
WHQ-2014-SQER-761-69
   45    48     1     0     0
SMALL
MULLIKEN_CHARGES
INVALID_CHARGES
Gaussian 16 #p B3LYP/6-31G* opt
@<TRIPOS>ATOM
      1 C           3.031095    2.952977   -3.094438 C.3       1 <1>        -0.223000 
      2 O           2.746016    2.574208   -1.752445 O.3       1 <1>        -0.506600 
      3 C           3.379936    3.232428   -0.753082 C.ar      1 <1>         0.380600 
      4 C           4.285216    4.261736   -0.905492 C.ar      1 <1>        -0.287000 
      5 C           4.895406    4.870113    0.227184 C.ar      1 <1>         0.150300 
      6 C           5.828187    5.925536    0.088798 C.ar      1 <1>        -0.221600 
      7 C           6.413728    6.503411    1.205461 C.ar      1 <1>         0.134300 
      8 C           7.355926    7.572386    1.046133 C.1       1 <1>         0.235600 
      9 N           8.120463    8.440672    0.922222 N.1       1 <1>        -0.476900 
     10 C           6.085750    6.042222    2.511677 C.ar      1 <1>        -0.146900 
     11 C           5.182495    5.018042    2.665817 C.ar      1 <1>        -0.195600 
     12 C           4.566610    4.408681    1.541781 C.ar      1 <1>         0.144200 
     13 C           3.626277    3.352297    1.673768 C.ar      1 <1>        -0.254000 
     14 C           3.048197    2.787228    0.568219 C.ar      1 <1>         0.295800 
     15 O           2.216084    1.692973    0.722676 O.3       1 <1>        -0.528900 
     16 C           0.880942    1.805085    0.473500 C.ar      1 <1>         0.558900 
     17 C           0.225256    3.031856    0.279451 C.ar      1 <1>        -0.213600 
     18 C          -1.142806    2.940987    0.075024 C.ar      1 <1>         0.065700 
     19 N          -1.823033    1.786760    0.060135 N.ar      1 <1>        -0.484300 
     20 C          -1.082389    0.689737    0.265577 C.ar      1 <1>         0.699000 
     21 N          -1.671223   -0.556613    0.277656 N.pl3     1 <1>        -0.766400 
     22 C          -2.991290   -0.976456    0.108285 C.ar      1 <1>         0.382200 
     23 C          -3.226942   -2.364545    0.183818 C.ar      1 <1>        -0.205700 
     24 C          -4.502725   -2.880315    0.028626 C.ar      1 <1>        -0.140500 
     25 C          -5.588793   -2.019073   -0.208385 C.ar      1 <1>         0.131200 
     26 C          -6.909830   -2.544190   -0.370461 C.1       1 <1>         0.227300 
     27 N          -7.984292   -2.972637   -0.502619 N.1       1 <1>        -0.484800 
     28 C          -5.354184   -0.636244   -0.283309 C.ar      1 <1>        -0.153400 
     29 C          -4.076625   -0.112610   -0.128450 C.ar      1 <1>        -0.159600 
     30 N           0.248745    0.645624    0.473918 N.ar      1 <1>        -0.546800 
     31 H           2.754474    3.998495   -3.279504 H         1 <1>         0.160500 
     32 H           2.425223    2.297885   -3.721384 H         1 <1>         0.185400 
     33 H           4.092766    2.808029   -3.328899 H         1 <1>         0.164100 
     34 H           4.555044    4.619301   -1.892759 H         1 <1>         0.149300 
     35 H           6.086986    6.284774   -0.902775 H         1 <1>         0.157900 
     36 H           6.554896    6.506568    3.372405 H         1 <1>         0.160200 
     37 H           4.928648    4.661473    3.660483 H         1 <1>         0.148700 
     38 H           3.360736    2.972523    2.655658 H         1 <1>         0.157900 
     39 H           0.743157    3.981521    0.295763 H         1 <1>         0.157100 
     40 H          -1.734196    3.840785   -0.083934 H         1 <1>         0.156700 
     41 H          -0.990332   -1.287420    0.442099 H         1 <1>         0.349800 
     42 H          -2.394710   -3.040404    0.366669 H         1 <1>         0.137900 
     43 H          -4.667299   -3.951165    0.089506 H         1 <1>         0.158100 
     44 H          -6.187005    0.035637   -0.465552 H         1 <1>         0.157800 
     45 H          -3.903577    0.952099   -0.187350 H         1 <1>         0.189100 
@<TRIPOS>BOND
     1   23   42 1    
     2   24   43 1    
     3   21   41 1    
     4   23   24 ar   
     5   22   23 ar   
     6   14   15 1    
     7   15   16 1    
     8   24   25 ar   
     9   13   38 1    
    10   16   30 ar   
    11   30   20 ar   
    12    1   33 1    
    13   21   22 1    
    14   20   21 1    
    15   13   14 ar   
    16   14    3 ar   
    17   12   13 ar   
    18   11   37 1    
    19    3    2 1    
    20    2    1 1    
    21    3    4 ar   
    22   22   29 ar   
    23   12   11 ar   
    24   12    5 ar   
    25    1   32 1    
    26   16   17 ar   
    27   11   10 ar   
    28    1   31 1    
    29   20   19 ar   
    30    4    5 ar   
    31    4   34 1    
    32    5    6 ar   
    33   10   36 1    
    34   10    7 ar   
    35   25   26 1    
    36   25   28 ar   
    37    6    7 ar   
    38    6   35 1    
    39    7    8 1    
    40   26   27 3    
    41    8    9 3    
    42   29   28 ar   
    43   29   45 1    
    44   17   39 1    
    45   17   18 ar   
    46   19   18 ar   
    47   28   44 1    
    48   18   40 1    
@<TRIPOS>SUBSTRUCTURE
     1 ****       41 TEMP              0 ****  ****    0 ROOT 
