#	Name:			WHQ-2014-SQER-761-56
#	Creating user name:	Administrator
#	Creation time:		Sun Jul 05 16:18:29 2020

#	Modifying user name:	Administrator
#	Modification time:	Sun Jul 05 16:19:33 2020

@<TRIPOS>MOLECULE
WHQ-2014-SQER-761-56
   48    51     1     0     0
SMALL
MULLIKEN_CHARGES
INVALID_CHARGES
Gaussian 16 #p B3LYP/6-31G* opt
@<TRIPOS>ATOM
      1 C          -3.289184    4.088722   -0.361076 C.3       1 <1>        -0.287900 
      2 N          -1.857519    4.080021   -0.121493 N.pl3     1 <1>        -0.649000 
      3 C          -1.130540    2.947061    0.076807 C.ar      1 <1>         0.527600 
      4 N          -1.814943    1.783099    0.062961 N.ar      1 <1>        -0.601300 
      5 C          -1.092413    0.682648    0.263615 C.ar      1 <1>         0.707400 
      6 N          -1.701127   -0.561628    0.270988 N.pl3     1 <1>        -0.780800 
      7 C          -3.019909   -0.968725    0.100565 C.ar      1 <1>         0.385000 
      8 C          -3.275918   -2.353721    0.190582 C.ar      1 <1>        -0.205500 
      9 C          -4.556515   -2.855090    0.032406 C.ar      1 <1>        -0.141500 
     10 C          -5.631496   -1.984418   -0.222649 C.ar      1 <1>         0.129600 
     11 C          -6.957623   -2.494066   -0.387751 C.1       1 <1>         0.224600 
     12 N          -8.037330   -2.908779   -0.522395 N.1       1 <1>        -0.488500 
     13 C          -5.377920   -0.605357   -0.312337 C.ar      1 <1>        -0.156800 
     14 C          -4.095579   -0.096410   -0.154675 C.ar      1 <1>        -0.162500 
     15 N           0.231801    0.611806    0.476429 N.ar      1 <1>        -0.584800 
     16 C           0.873185    1.777232    0.480521 C.ar      1 <1>         0.512200 
     17 O           2.217544    1.777291    0.712666 O.3       1 <1>        -0.581500 
     18 C           2.927154    0.579225    0.765002 C.ar      1 <1>         0.367000 
     19 C           3.035538   -0.239373   -0.384948 C.ar      1 <1>        -0.136600 
     20 C           3.830065   -1.359697   -0.341880 C.ar      1 <1>        -0.211000 
     21 C           4.550231   -1.709509    0.833509 C.ar      1 <1>         0.145900 
     22 C           5.379185   -2.860308    0.902573 C.ar      1 <1>        -0.194200 
     23 C           6.065384   -3.168060    2.056138 C.ar      1 <1>        -0.135100 
     24 C           5.952892   -2.334653    3.195614 C.ar      1 <1>        -0.136300 
     25 C           5.158424   -1.210417    3.160861 C.ar      1 <1>        -0.189800 
     26 C           4.436936   -0.865952    1.986563 C.ar      1 <1>         0.128800 
     27 C           3.606391    0.284808    1.920477 C.ar      1 <1>        -0.243900 
     28 C           0.268067    3.018902    0.283949 C.ar      1 <1>         0.055900 
     29 C           1.017680    4.323783    0.293248 C.3       1 <1>        -0.561600 
     30 H          -3.548183    3.541136   -1.274646 H         1 <1>         0.173700 
     31 H          -3.612811    5.126661   -0.469118 H         1 <1>         0.153200 
     32 H          -3.833505    3.634937    0.474147 H         1 <1>         0.177300 
     33 H          -1.362658    4.956466   -0.137675 H         1 <1>         0.337100 
     34 H          -1.027215   -1.296292    0.445410 H         1 <1>         0.347300 
     35 H          -2.453563   -3.037558    0.387906 H         1 <1>         0.136300 
     36 H          -4.734578   -3.923268    0.105208 H         1 <1>         0.155500 
     37 H          -6.201580    0.074212   -0.508877 H         1 <1>         0.151900 
     38 H          -3.906547    0.964587   -0.224542 H         1 <1>         0.187500 
     39 H           2.490269    0.029474   -1.282914 H         1 <1>         0.142000 
     40 H           3.920552   -1.994678   -1.219956 H         1 <1>         0.135100 
     41 H           5.463363   -3.497213    0.024944 H         1 <1>         0.130600 
     42 H           6.696255   -4.051834    2.096265 H         1 <1>         0.131200 
     43 H           6.498380   -2.586690    4.101081 H         1 <1>         0.131800 
     44 H           5.071673   -0.569862    4.035411 H         1 <1>         0.131600 
     45 H           3.508875    0.939002    2.781694 H         1 <1>         0.138900 
     46 H           0.661379    4.994732    1.088398 H         1 <1>         0.156500 
     47 H           2.082420    4.154487    0.459631 H         1 <1>         0.193000 
     48 H           0.914136    4.861818   -0.660390 H         1 <1>         0.154300 
@<TRIPOS>BOND
     1   20   40 1    
     2   19   39 1    
     3   22   41 1    
     4   19   20 ar   
     5   20   21 ar   
     6   18   19 ar   
     7   21   22 ar   
     8   22   23 ar   
     9   29   48 1    
    10    1   30 1    
    11   21   26 ar   
    12   17   18 1    
    13   18   27 ar   
    14   23   42 1    
    15   16   17 1    
    16   29   47 1    
    17   16   15 ar   
    18   28   16 ar   
    19    5   15 ar   
    20    6   34 1    
    21   28   29 1    
    22   29   46 1    
    23    3   28 ar   
    24    5    6 1    
    25    6    7 1    
    26    4    5 ar   
    27    8   35 1    
    28    7    8 ar   
    29    7   14 ar   
    30    8    9 ar   
    31    3    4 ar   
    32    2    3 1    
    33   14   38 1    
    34   14   13 ar   
    35    2   33 1    
    36    9   36 1    
    37    9   10 ar   
    38    2    1 1    
    39   23   24 ar   
    40   13   10 ar   
    41   13   37 1    
    42   10   11 1    
    43    1   31 1    
    44    1   32 1    
    45   11   12 3    
    46   26   27 ar   
    47   26   25 ar   
    48   27   45 1    
    49   24   25 ar   
    50   24   43 1    
    51   25   44 1    
@<TRIPOS>SUBSTRUCTURE
     1 ****       34 TEMP              0 ****  ****    0 ROOT 
