#	Name:			WHQ-2014-SQER-761-73
#	Creating user name:	Administrator
#	Creation time:		Sun Jul 05 16:18:32 2020

#	Modifying user name:	Administrator
#	Modification time:	Sun Jul 05 16:19:33 2020

@<TRIPOS>MOLECULE
WHQ-2014-SQER-761-73
   44    47     1     0     0
SMALL
MULLIKEN_CHARGES
INVALID_CHARGES
Gaussian 16 #p B3LYP/6-31G* opt
@<TRIPOS>ATOM
      1 C           0.993295    4.326871    0.302942 C.3       1 <1>        -0.520400 
      2 C           0.251191    3.019844    0.290505 C.ar      1 <1>         0.081500 
      3 C          -1.120772    2.909202    0.075539 C.ar      1 <1>         0.016400 
      4 N          -1.796483    1.756533    0.061321 N.ar      1 <1>        -0.493100 
      5 C          -1.062015    0.651815    0.271882 C.ar      1 <1>         0.690400 
      6 N          -1.796364   -0.515361    0.248542 N.pl3     1 <1>        -0.767800 
      7 C          -1.450787   -1.857176    0.405601 C.ar      1 <1>         0.381100 
      8 C          -2.505292   -2.791860    0.345911 C.ar      1 <1>        -0.204500 
      9 C          -2.265154   -4.147898    0.489442 C.ar      1 <1>        -0.140600 
     10 C          -0.955373   -4.615676    0.698305 C.ar      1 <1>         0.131700 
     11 C          -0.700127   -6.015229    0.850268 C.1       1 <1>         0.227300 
     12 N          -0.495040   -7.154382    0.974872 N.1       1 <1>        -0.483000 
     13 C           0.095190   -3.685408    0.755911 C.ar      1 <1>        -0.157800 
     14 C          -0.139216   -2.323339    0.612710 C.ar      1 <1>        -0.165700 
     15 N           0.261571    0.612211    0.490724 N.ar      1 <1>        -0.552100 
     16 C           0.884279    1.782032    0.496805 C.ar      1 <1>         0.524100 
     17 O           2.230166    1.820134    0.692618 O.3       1 <1>        -0.560400 
     18 C           2.936286    0.672051    1.041247 C.ar      1 <1>         0.364700 
     19 C           2.692941    0.032427    2.281219 C.ar      1 <1>        -0.144000 
     20 C           3.476925   -1.032551    2.654279 C.ar      1 <1>        -0.202000 
     21 C           4.532403   -1.495401    1.819708 C.ar      1 <1>         0.142000 
     22 C           5.356634   -2.584744    2.190035 C.ar      1 <1>        -0.215100 
     23 C           6.381750   -3.008628    1.359288 C.ar      1 <1>         0.132700 
     24 C           7.215345   -4.108602    1.747104 C.1       1 <1>         0.237300 
     25 N           7.898723   -4.998167    2.055810 N.1       1 <1>        -0.474900 
     26 C           6.616260   -2.350940    0.116823 C.ar      1 <1>        -0.142000 
     27 C           5.828025   -1.291834   -0.259850 C.ar      1 <1>        -0.193400 
     28 C           4.770415   -0.832008    0.571508 C.ar      1 <1>         0.140200 
     29 C           3.944497    0.261463    0.204100 C.ar      1 <1>        -0.241100 
     30 H           1.767274    4.357527   -0.472825 H         1 <1>         0.173300 
     31 H           0.305512    5.160610    0.130308 H         1 <1>         0.159300 
     32 H           1.498392    4.494024    1.261440 H         1 <1>         0.173200 
     33 H          -1.712540    3.808254   -0.094321 H         1 <1>         0.151300 
     34 H          -2.776395   -0.324950    0.080754 H         1 <1>         0.349300 
     35 H          -3.522566   -2.442264    0.185689 H         1 <1>         0.138400 
     36 H          -3.088083   -4.853700    0.441516 H         1 <1>         0.159100 
     37 H           1.109916   -4.036639    0.914480 H         1 <1>         0.158500 
     38 H           0.678670   -1.619693    0.657850 H         1 <1>         0.194000 
     39 H           1.893647    0.391755    2.919676 H         1 <1>         0.154900 
     40 H           3.300768   -1.530817    3.603852 H         1 <1>         0.152600 
     41 H           5.182199   -3.089558    3.135575 H         1 <1>         0.164000 
     42 H           7.422328   -2.698216   -0.520870 H         1 <1>         0.162000 
     43 H           6.007346   -0.790089   -1.206944 H         1 <1>         0.148200 
     44 H           4.109718    0.782062   -0.734106 H         1 <1>         0.150600 
@<TRIPOS>BOND
     1   20   40 1    
     2   19   39 1    
     3   22   41 1    
     4   19   20 ar   
     5   20   21 ar   
     6   18   19 ar   
     7    1   32 1    
     8   21   22 ar   
     9   22   23 ar   
    10   21   28 ar   
    11   24   25 3    
    12   17   18 1    
    13   18   29 ar   
    14   23   24 1    
    15   16   17 1    
    16   15   16 ar   
    17   16    2 ar   
    18    1   31 1    
    19    2    1 1    
    20    1   30 1    
    21    5   15 ar   
    22    3    2 ar   
    23   13   37 1    
    24   14   38 1    
    25   11   12 3    
    26   14   13 ar   
    27   13   10 ar   
    28   10   11 1    
    29    7   14 ar   
    30    6    5 1    
    31    5    4 ar   
    32   23   26 ar   
    33   10    9 ar   
    34    3   33 1    
    35    4    3 ar   
    36    7    6 1    
    37    7    8 ar   
    38    6   34 1    
    39    9    8 ar   
    40    9   36 1    
    41    8   35 1    
    42   28   29 ar   
    43   28   27 ar   
    44   29   44 1    
    45   26   27 ar   
    46   26   42 1    
    47   27   43 1    
@<TRIPOS>SUBSTRUCTURE
     1 ****       12 TEMP              0 ****  ****    0 ROOT 
