#	Name:			WHQ-2014-SQER-761-54
#	Creating user name:	Administrator
#	Creation time:		Sun Jul 05 16:18:29 2020

#	Modifying user name:	Administrator
#	Modification time:	Sun Jul 05 16:19:33 2020

@<TRIPOS>MOLECULE
WHQ-2014-SQER-761-54
   45    48     1     0     0
SMALL
MULLIKEN_CHARGES
INVALID_CHARGES
Gaussian 16 #p B3LYP/6-31G* opt
@<TRIPOS>ATOM
      1 C          -1.351974    5.417935   -0.190113 C.3       1 <1>        -0.300600 
      2 N          -1.873468    4.068703   -0.142343 N.pl3     1 <1>        -0.638000 
      3 C          -1.126171    2.955150    0.070463 C.ar      1 <1>         0.571600 
      4 C           0.258653    3.003764    0.294089 C.ar      1 <1>        -0.278700 
      5 C           0.872455    1.768931    0.495687 C.ar      1 <1>         0.573200 
      6 O           2.218731    1.789901    0.692286 O.3       1 <1>        -0.572800 
      7 C           2.902135    0.625691    1.034004 C.ar      1 <1>         0.364200 
      8 C           2.633373   -0.031782    2.258842 C.ar      1 <1>        -0.136100 
      9 C           3.393979   -1.115811    2.625467 C.ar      1 <1>        -0.207000 
     10 C           4.451108   -1.585229    1.797985 C.ar      1 <1>         0.144800 
     11 C           5.248690   -2.702743    2.159958 C.ar      1 <1>        -0.221100 
     12 C           6.261670   -3.117724    1.329363 C.ar      1 <1>         0.078600 
     13 BR          7.335145   -4.624428    1.817258 Br        1 <1>        -0.130200 
     14 C           6.538277   -2.457267    0.110299 C.ar      1 <1>        -0.152800 
     15 C           5.776703   -1.371262   -0.256399 C.ar      1 <1>        -0.190800 
     16 C           4.717437   -0.903841    0.566599 C.ar      1 <1>         0.137000 
     17 C           3.915929    0.211191    0.206617 C.ar      1 <1>        -0.242900 
     18 N           0.235462    0.605968    0.488032 N.ar      1 <1>        -0.587700 
     19 C          -1.094530    0.685316    0.264901 C.ar      1 <1>         0.715900 
     20 N          -1.701813   -0.557146    0.266375 N.pl3     1 <1>        -0.778400 
     21 C          -3.020152   -0.964700    0.080832 C.ar      1 <1>         0.385100 
     22 C          -4.098342   -0.090398   -0.153088 C.ar      1 <1>        -0.155700 
     23 C          -5.379061   -0.600145   -0.323129 C.ar      1 <1>        -0.153400 
     24 C          -5.626892   -1.981721   -0.266343 C.ar      1 <1>         0.130100 
     25 C          -6.951513   -2.492143   -0.443059 C.1       1 <1>         0.225700 
     26 N          -8.029884   -2.907036   -0.586763 N.1       1 <1>        -0.486700 
     27 C          -4.549059   -2.854558   -0.032680 C.ar      1 <1>        -0.140800 
     28 C          -3.270167   -2.352098    0.137457 C.ar      1 <1>        -0.205900 
     29 N          -1.811213    1.784526    0.056102 N.ar      1 <1>        -0.594100 
     30 H          -2.179366    6.104697   -0.379621 H         1 <1>         0.168400 
     31 H          -0.612772    5.540966   -0.992833 H         1 <1>         0.169400 
     32 H          -0.881158    5.703537    0.759648 H         1 <1>         0.170000 
     33 H          -2.855726    3.904817   -0.304895 H         1 <1>         0.338300 
     34 H           0.831668    3.920096    0.312286 H         1 <1>         0.146900 
     35 H           1.830663    0.329755    2.891553 H         1 <1>         0.147700 
     36 H           3.195800   -1.626659    3.564144 H         1 <1>         0.141300 
     37 H           5.052581   -3.222518    3.092188 H         1 <1>         0.153700 
     38 H           7.345386   -2.811751   -0.521140 H         1 <1>         0.155400 
     39 H           5.982955   -0.857695   -1.191983 H         1 <1>         0.142700 
     40 H           4.103337    0.743581   -0.720926 H         1 <1>         0.144000 
     41 H          -1.026998   -1.294004    0.426950 H         1 <1>         0.348100 
     42 H          -3.913571    0.972612   -0.198220 H         1 <1>         0.173700 
     43 H          -6.205189    0.080775   -0.503033 H         1 <1>         0.153500 
     44 H          -4.722936   -3.924798    0.013824 H         1 <1>         0.157100 
     45 H          -2.445046   -3.037538    0.316957 H         1 <1>         0.137400 
@<TRIPOS>BOND
     1    9   36 1    
     2    8   35 1    
     3   11   37 1    
     4    8    9 ar   
     5    9   10 ar   
     6    7    8 ar   
     7    1   32 1    
     8   10   11 ar   
     9   11   12 ar   
    10   10   16 ar   
    11    6    7 1    
    12    7   17 ar   
    13    5    6 1    
    14    5   18 ar   
    15    4    5 ar   
    16   12   13 1    
    17   19   18 ar   
    18    4   34 1    
    19    3    4 ar   
    20   20   41 1    
    21   19   20 1    
    22   29   19 ar   
    23   20   21 1    
    24    3   29 ar   
    25    2    3 1    
    26   28   45 1    
    27   21   28 ar   
    28   21   22 ar   
    29    2    1 1    
    30    2   33 1    
    31   28   27 ar   
    32   22   42 1    
    33    1   30 1    
    34    1   31 1    
    35   22   23 ar   
    36   27   44 1    
    37   27   24 ar   
    38   23   24 ar   
    39   23   43 1    
    40   24   25 1    
    41   25   26 3    
    42   12   14 ar   
    43   16   17 ar   
    44   16   15 ar   
    45   17   40 1    
    46   14   15 ar   
    47   14   38 1    
    48   15   39 1    
@<TRIPOS>SUBSTRUCTURE
     1 ****       37 TEMP              0 ****  ****    0 ROOT 
