#	Name:			WHQ-2014-SQER-761-5
#	Creating user name:	Administrator
#	Creation time:		Sun Jul 05 16:18:28 2020

#	Modifying user name:	Administrator
#	Modification time:	Sun Jul 05 16:19:33 2020

@<TRIPOS>MOLECULE
WHQ-2014-SQER-761-5
   43    46     1     0     0
SMALL
MULLIKEN_CHARGES
INVALID_CHARGES
Gaussian 16 #p B3LYP/6-31G* opt
@<TRIPOS>ATOM
      1 C          -1.977857    4.190192   -0.174661 C.3       1 <1>        -0.514300 
      2 C          -1.151312    2.955871    0.066647 C.ar      1 <1>         0.341000 
      3 C           0.221635    3.027692    0.284895 C.ar      1 <1>        -0.256100 
      4 C           0.876950    1.804064    0.491500 C.ar      1 <1>         0.544400 
      5 O           2.218613    1.690070    0.704839 O.3       1 <1>        -0.540000 
      6 C           3.009546    2.829282    0.816955 C.ar      1 <1>         0.251400 
      7 C           3.076535    3.501851    2.012708 C.ar      1 <1>        -0.154000 
      8 C           3.934552    4.615754    2.144741 C.ar      1 <1>        -0.156500 
      9 C           4.705650    5.020962    1.080081 C.ar      1 <1>        -0.130800 
     10 CL          5.755205    6.417208    1.297116 Cl        1 <1>        -0.006300 
     11 C           4.676427    4.342113   -0.174046 C.ar      1 <1>         0.125700 
     12 C           5.460283    4.720866   -1.295851 C.ar      1 <1>        -0.197400 
     13 C           5.386734    4.017985   -2.477236 C.ar      1 <1>        -0.128200 
     14 C           4.529873    2.899104   -2.597538 C.ar      1 <1>        -0.130500 
     15 C           3.753928    2.502550   -1.532749 C.ar      1 <1>        -0.189600 
     16 C           3.800979    3.209632   -0.302500 C.ar      1 <1>         0.115700 
     17 N           0.250451    0.640173    0.483232 N.ar      1 <1>        -0.549700 
     18 C          -1.079080    0.690302    0.265671 C.ar      1 <1>         0.698500 
     19 N          -1.669628   -0.556876    0.273613 N.pl3     1 <1>        -0.771400 
     20 C          -2.987727   -0.976464    0.095219 C.ar      1 <1>         0.382600 
     21 C          -4.071164   -0.113078   -0.152660 C.ar      1 <1>        -0.159600 
     22 C          -5.347730   -0.636255   -0.315989 C.ar      1 <1>        -0.153800 
     23 C          -5.584053   -2.018682   -0.238819 C.ar      1 <1>         0.131000 
     24 C          -6.904235   -2.543189   -0.409276 C.1       1 <1>         0.226800 
     25 N          -7.978137   -2.970909   -0.547922 N.1       1 <1>        -0.485600 
     26 C          -4.500221   -2.879717    0.008980 C.ar      1 <1>        -0.140700 
     27 C          -3.225383   -2.364424    0.172714 C.ar      1 <1>        -0.205800 
     28 N          -1.816054    1.785114    0.057539 N.ar      1 <1>        -0.539800 
     29 H          -1.369481    5.098150   -0.152958 H         1 <1>         0.160300 
     30 H          -2.762893    4.271329    0.585492 H         1 <1>         0.180600 
     31 H          -2.478703    4.122770   -1.146902 H         1 <1>         0.181100 
     32 H           0.748320    3.972273    0.289567 H         1 <1>         0.157900 
     33 H           2.474088    3.171288    2.852424 H         1 <1>         0.156400 
     34 H           3.987802    5.149651    3.087010 H         1 <1>         0.163500 
     35 H           6.122588    5.574468   -1.207841 H         1 <1>         0.162400 
     36 H           5.995310    4.322867   -3.323821 H         1 <1>         0.142300 
     37 H           4.487737    2.349810   -3.533692 H         1 <1>         0.142300 
     38 H           3.104061    1.637981   -1.611112 H         1 <1>         0.159700 
     39 H          -0.990131   -1.287365    0.444500 H         1 <1>         0.348900 
     40 H          -3.895715    0.951150   -0.213037 H         1 <1>         0.185700 
     41 H          -6.178711    0.035662   -0.506884 H         1 <1>         0.156600 
     42 H          -4.665893   -3.950400    0.071669 H         1 <1>         0.157600 
     43 H          -2.395098   -3.040277    0.364004 H         1 <1>         0.137500 
@<TRIPOS>BOND
     1    1   31 1    
     2    1   29 1    
     3    1   30 1    
     4    2    1 1    
     5   13   36 1    
     6   14   37 1    
     7   22   41 1    
     8   14   13 ar   
     9   12   13 ar   
    10   15   14 ar   
    11   12   35 1    
    12   21   40 1    
    13    2   28 ar   
    14    3    2 ar   
    15   11   12 ar   
    16    3   32 1    
    17   21   22 ar   
    18   22   23 ar   
    19   18   28 ar   
    20   24   25 3    
    21   20   21 ar   
    22   15   38 1    
    23   16   15 ar   
    24    4    3 ar   
    25   23   24 1    
    26   16   11 ar   
    27   11    9 ar   
    28   23   26 ar   
    29    6   16 ar   
    30    9   10 1    
    31   18   19 1    
    32   17   18 ar   
    33   19   20 1    
    34   20   27 ar   
    35    9    8 ar   
    36    4   17 ar   
    37    5    4 1    
    38   19   39 1    
    39    6    5 1    
    40    6    7 ar   
    41   26   27 ar   
    42   26   42 1    
    43   27   43 1    
    44    8    7 ar   
    45    8   34 1    
    46    7   33 1    
@<TRIPOS>SUBSTRUCTURE
     1 ****       36 TEMP              0 ****  ****    0 ROOT 
