#	Name:			WHQ-2015-BMC-624-3-3p
#	Creating user name:	Administrator
#	Creation time:		Sun Jul 05 16:18:35 2020

#	Modifying user name:	Administrator
#	Modification time:	Sun Jul 05 16:19:33 2020

@<TRIPOS>MOLECULE
WHQ-2015-BMC-624-3-3p
   44    46     1     0     0
SMALL
MULLIKEN_CHARGES
INVALID_CHARGES
Gaussian 16 #p B3LYP/6-31G* opt
@<TRIPOS>ATOM
      1 C           1.015774    4.322097    0.302589 C.3       1 <1>        -0.528900 
      2 C           0.254909    3.025929    0.287354 C.ar      1 <1>         0.084200 
      3 C          -1.112024    2.934410    0.076994 C.ar      1 <1>         0.015500 
      4 N          -1.811098    1.786201    0.059502 N.ar      1 <1>        -0.487400 
      5 C          -1.099477    0.678502    0.263623 C.ar      1 <1>         0.704100 
      6 N          -1.704841   -0.560707    0.268622 N.pl3     1 <1>        -0.768300 
      7 C          -3.031187   -0.956792    0.089456 C.ar      1 <1>         0.382300 
      8 C          -4.098072   -0.072103   -0.153262 C.ar      1 <1>        -0.159400 
      9 C          -5.384223   -0.571356   -0.317575 C.ar      1 <1>        -0.153400 
     10 C          -5.645212   -1.949657   -0.246284 C.ar      1 <1>         0.131400 
     11 C          -6.974953   -2.449637   -0.417488 C.1       1 <1>         0.227600 
     12 N          -8.056379   -2.857631   -0.556627 N.1       1 <1>        -0.484300 
     13 C          -4.577203   -2.831673   -0.003605 C.ar      1 <1>        -0.140300 
     14 C          -3.292991   -2.340305    0.161044 C.ar      1 <1>        -0.206300 
     15 N           0.235120    0.618886    0.481298 N.ar      1 <1>        -0.586600 
     16 C           0.877029    1.772669    0.489220 C.ar      1 <1>         0.558800 
     17 O           2.211957    1.780519    0.701324 O.3       1 <1>        -0.529600 
     18 C           2.875773    0.525424    0.909887 C.3       1 <1>        -0.107200 
     19 C           4.372322    0.744029    1.130614 C.2       1 <1>         0.578600 
     20 O           5.087802   -0.228539    1.324190 O.2       1 <1>        -0.501800 
     21 N           4.777780    2.046666    1.088652 N.am      1 <1>        -0.730300 
     22 C           6.075116    2.558886    1.253585 C.ar      1 <1>         0.304000 
     23 C           7.224408    1.795045    1.499248 C.ar      1 <1>        -0.164100 
     24 C           8.458905    2.431710    1.643977 C.ar      1 <1>        -0.143200 
     25 C           8.572488    3.818909    1.548556 C.ar      1 <1>        -0.129200 
     26 C           7.434203    4.591925    1.303796 C.ar      1 <1>        -0.197000 
     27 C           6.217751    3.950291    1.162452 C.ar      1 <1>         0.307200 
     28 F           5.092514    4.679134    0.923388 F         1 <1>        -0.307000 
     29 H           0.341315    5.165646    0.126113 H         1 <1>         0.163200 
     30 H           1.516801    4.486231    1.264385 H         1 <1>         0.173100 
     31 H           1.793340    4.344202   -0.470583 H         1 <1>         0.173100 
     32 H          -1.693196    3.840501   -0.089930 H         1 <1>         0.150400 
     33 H          -1.039850   -1.304833    0.435553 H         1 <1>         0.345900 
     34 H          -3.904344    0.989283   -0.209239 H         1 <1>         0.190100 
     35 H          -6.202889    0.116310   -0.504490 H         1 <1>         0.158500 
     36 H          -4.762470   -3.899319    0.054335 H         1 <1>         0.158600 
     37 H          -2.475046   -3.032296    0.348198 H         1 <1>         0.136900 
     38 H           2.738451   -0.129114    0.044186 H         1 <1>         0.195500 
     39 H           2.461253    0.013254    1.783288 H         1 <1>         0.195500 
     40 H           4.054390    2.733639    0.917087 H         1 <1>         0.367800 
     41 H           7.131721    0.720319    1.572529 H         1 <1>         0.192400 
     42 H           9.341471    1.828012    1.834107 H         1 <1>         0.140200 
     43 H           9.537544    4.302784    1.662829 H         1 <1>         0.139600 
     44 H           7.474935    5.672995    1.221813 H         1 <1>         0.150100 
@<TRIPOS>BOND
     1   18   39 1    
     2    1   30 1    
     3   14   37 1    
     4    7   14 ar   
     5   14   13 ar   
     6    6   33 1    
     7    5    6 1    
     8    6    7 1    
     9   13   36 1    
    10    5    4 ar   
    11   15    5 ar   
    12    3    4 ar   
    13   16   15 ar   
    14    7    8 ar   
    15   13   10 ar   
    16   16    2 ar   
    17   17   16 1    
    18    3   32 1    
    19    2    3 ar   
    20    1   29 1    
    21    2    1 1    
    22   18   17 1    
    23   19   18 1    
    24   18   38 1    
    25   21   40 1    
    26    1   31 1    
    27   21   19 1    
    28   22   21 1    
    29   19   20 2    
    30   27   28 1    
    31   22   27 ar   
    32   22   23 ar   
    33   27   26 ar   
    34   23   41 1    
    35   23   24 ar   
    36   26   44 1    
    37   26   25 ar   
    38   24   25 ar   
    39   24   42 1    
    40    8   34 1    
    41    8    9 ar   
    42   25   43 1    
    43   10    9 ar   
    44   10   11 1    
    45    9   35 1    
    46   11   12 3    
@<TRIPOS>SUBSTRUCTURE
     1 ****       40 TEMP              0 ****  ****    0 ROOT 
