#	Name:			WHQ-2015-BMC-624-3-3j
#	Creating user name:	Administrator
#	Creation time:		Sun Jul 05 16:18:34 2020

#	Modifying user name:	Administrator
#	Modification time:	Sun Jul 05 16:19:33 2020

@<TRIPOS>MOLECULE
WHQ-2015-BMC-624-3-3j
   44    46     1     0     0
SMALL
MULLIKEN_CHARGES
INVALID_CHARGES
Gaussian 16 #p B3LYP/6-31G* opt
@<TRIPOS>ATOM
      1 C          -1.936872    4.198668   -0.159371 C.3       1 <1>        -0.514200 
      2 C          -1.123013    2.955450    0.073704 C.ar      1 <1>         0.344000 
      3 C           0.245482    3.001241    0.285839 C.ar      1 <1>        -0.256800 
      4 C           0.883275    1.765060    0.489807 C.ar      1 <1>         0.605700 
      5 O           2.212161    1.790685    0.700772 O.3       1 <1>        -0.485200 
      6 C           2.875856    0.544840    0.881542 C.3       1 <1>        -0.120900 
      7 C           4.381423    0.824421    0.806151 C.2       1 <1>         0.610100 
      8 O           4.849953    1.613661    0.005514 O.2       1 <1>        -0.480200 
      9 N           5.113195    0.054986    1.681481 N.am      1 <1>        -0.724400 
     10 C           6.516157   -0.041490    1.810544 C.ar      1 <1>         0.359300 
     11 C           7.412942    0.708826    1.034979 C.ar      1 <1>        -0.158500 
     12 C           8.785615    0.551756    1.222334 C.ar      1 <1>        -0.164800 
     13 C           9.266405   -0.342428    2.175504 C.ar      1 <1>         0.086900 
     14 BR         11.150788   -0.546054    2.422876 Br        1 <1>        -0.129500 
     15 C           8.385876   -1.091098    2.953664 C.ar      1 <1>        -0.152600 
     16 C           7.015670   -0.937909    2.767362 C.ar      1 <1>        -0.194700 
     17 N           0.240301    0.607955    0.485984 N.ar      1 <1>        -0.597300 
     18 C          -1.094311    0.682995    0.264158 C.ar      1 <1>         0.703800 
     19 N          -1.705622   -0.554915    0.265572 N.pl3     1 <1>        -0.770800 
     20 C          -3.032142   -0.948513    0.085907 C.ar      1 <1>         0.382900 
     21 C          -4.099466   -0.061944   -0.148952 C.ar      1 <1>        -0.159000 
     22 C          -5.386299   -0.559258   -0.312928 C.ar      1 <1>        -0.153700 
     23 C          -5.648596   -1.937717   -0.249070 C.ar      1 <1>         0.131300 
     24 C          -6.979037   -2.435815   -0.418990 C.1       1 <1>         0.227200 
     25 N          -8.061111   -2.842703   -0.556498 N.1       1 <1>        -0.484600 
     26 C          -4.580532   -2.821848   -0.014793 C.ar      1 <1>        -0.140400 
     27 C          -3.295571   -2.332283    0.149516 C.ar      1 <1>        -0.206200 
     28 N          -1.806698    1.787939    0.062099 N.ar      1 <1>        -0.544200 
     29 H          -2.438076    4.143200   -1.132278 H         1 <1>         0.180300 
     30 H          -1.318540    5.099586   -0.131500 H         1 <1>         0.161800 
     31 H          -2.721309    4.283019    0.601209 H         1 <1>         0.179000 
     32 H           0.811461    3.924007    0.293127 H         1 <1>         0.156900 
     33 H           2.572436    0.091400    1.833565 H         1 <1>         0.152000 
     34 H           2.600752   -0.152516    0.081813 H         1 <1>         0.193800 
     35 H           4.586988   -0.524240    2.322183 H         1 <1>         0.333900 
     36 H           7.033438    1.404348    0.299900 H         1 <1>         0.198400 
     37 H           9.479193    1.131395    0.622840 H         1 <1>         0.161500 
     38 H           8.763434   -1.786021    3.695506 H         1 <1>         0.157900 
     39 H           6.328566   -1.524348    3.374205 H         1 <1>         0.132400 
     40 H          -1.041717   -1.300975    0.426697 H         1 <1>         0.341800 
     41 H          -3.903103    0.999106   -0.199327 H         1 <1>         0.187800 
     42 H          -6.204990    0.130228   -0.493765 H         1 <1>         0.157900 
     43 H          -4.766372   -3.889780    0.036851 H         1 <1>         0.157600 
     44 H          -2.477584   -3.026211    0.329830 H         1 <1>         0.133700 
@<TRIPOS>BOND
     1   16   39 1    
     2   15   38 1    
     3    1   31 1    
     4    9   35 1    
     5   16   15 ar   
     6   10   16 ar   
     7    6   33 1    
     8   15   13 ar   
     9    1   30 1    
    10    2    1 1    
    11    1   29 1    
    12    9   10 1    
    13    7    9 1    
    14    3   32 1    
    15    2    3 ar   
    16   28    2 ar   
    17    4    3 ar   
    18   10   11 ar   
    19   18   28 ar   
    20    4    5 1    
    21   17    4 ar   
    22   21   41 1    
    23    5    6 1    
    24   22   42 1    
    25   18   17 ar   
    26   19   18 1    
    27   13   14 1    
    28   13   12 ar   
    29   21   22 ar   
    30   20   21 ar   
    31   22   23 ar   
    32    6    7 1    
    33    6   34 1    
    34   19   20 1    
    35   19   40 1    
    36   20   27 ar   
    37   23   24 1    
    38   23   26 ar   
    39   24   25 3    
    40   27   26 ar   
    41   27   44 1    
    42   26   43 1    
    43    7    8 2    
    44   11   12 ar   
    45   11   36 1    
    46   12   37 1    
@<TRIPOS>SUBSTRUCTURE
     1 ****       31 TEMP              0 ****  ****    0 ROOT 
