#	Name:			WHQ-2014-SQER-761-48
#	Creating user name:	Administrator
#	Creation time:		Sun Jul 05 16:18:28 2020

#	Modifying user name:	Administrator
#	Modification time:	Sun Jul 05 16:19:33 2020

@<TRIPOS>MOLECULE
WHQ-2014-SQER-761-48
   49    52     1     0     0
SMALL
MULLIKEN_CHARGES
INVALID_CHARGES
Gaussian 16 #p B3LYP/6-31G* opt
@<TRIPOS>ATOM
      1 C           0.850643    4.434778    0.351548 C.3       1 <1>        -0.541400 
      2 C           0.227319    3.061994    0.287475 C.ar      1 <1>         0.110600 
      3 C          -1.144445    2.930191    0.075346 C.ar      1 <1>         0.009500 
      4 N          -1.825986    1.779366    0.052128 N.ar      1 <1>        -0.480300 
      5 C          -1.084513    0.687815    0.264894 C.ar      1 <1>         0.694500 
      6 N          -1.665316   -0.564858    0.288236 N.pl3     1 <1>        -0.768500 
      7 C          -2.981833   -0.992479    0.123620 C.ar      1 <1>         0.383400 
      8 C          -4.071021   -0.135442   -0.123058 C.ar      1 <1>        -0.160800 
      9 C          -5.346303   -0.665371   -0.272716 C.ar      1 <1>        -0.153600 
     10 C          -5.576292   -2.048215   -0.182993 C.ar      1 <1>         0.130400 
     11 C          -6.895196   -2.580045   -0.339631 C.1       1 <1>         0.226400 
     12 N          -7.968075   -3.013926   -0.467200 N.1       1 <1>        -0.486400 
     13 C          -4.486851   -2.902715    0.063650 C.ar      1 <1>        -0.140700 
     14 C          -3.213112   -2.380869    0.213830 C.ar      1 <1>        -0.206200 
     15 N           0.243904    0.661048    0.464655 N.ar      1 <1>        -0.544900 
     16 C           0.885850    1.819923    0.469028 C.ar      1 <1>         0.485200 
     17 O           2.214761    1.660931    0.726173 O.3       1 <1>        -0.547600 
     18 C           3.205052    2.543909    0.286651 C.ar      1 <1>         0.179100 
     19 C           3.472664    2.609382   -1.113294 C.ar      1 <1>         0.197400 
     20 C           2.666826    1.797802   -2.097670 C.3       1 <1>        -0.545300 
     21 C           4.507453    3.418823   -1.525179 C.ar      1 <1>        -0.300400 
     22 C           5.303457    4.151197   -0.606729 C.ar      1 <1>         0.173900 
     23 C           6.365262    4.985247   -1.045951 C.ar      1 <1>        -0.198000 
     24 C           7.137903    5.682081   -0.144595 C.ar      1 <1>        -0.134900 
     25 C           6.878077    5.569524    1.240932 C.ar      1 <1>        -0.132400 
     26 C           5.856233    4.765593    1.698281 C.ar      1 <1>        -0.199400 
     27 C           5.037765    4.033088    0.795316 C.ar      1 <1>         0.058300 
     28 C           3.962761    3.196622    1.240345 C.ar      1 <1>         0.101500 
     29 C           3.665719    3.041809    2.712213 C.3       1 <1>        -0.545500 
     30 H           0.063128    5.192585    0.279535 H         1 <1>         0.160100 
     31 H           1.382737    4.600509    1.293900 H         1 <1>         0.175100 
     32 H           1.564329    4.618095   -0.457815 H         1 <1>         0.181000 
     33 H          -1.740444    3.829693   -0.077136 H         1 <1>         0.148300 
     34 H          -0.979564   -1.289202    0.459186 H         1 <1>         0.347900 
     35 H          -3.901764    0.929289   -0.193228 H         1 <1>         0.188900 
     36 H          -6.181472    0.001523   -0.462701 H         1 <1>         0.156800 
     37 H          -4.647509   -3.973555    0.136073 H         1 <1>         0.156900 
     38 H          -2.378462   -3.051664    0.404421 H         1 <1>         0.136500 
     39 H           3.137813    1.819936   -3.084584 H         1 <1>         0.161200 
     40 H           1.644119    2.178814   -2.209806 H         1 <1>         0.166400 
     41 H           2.583353    0.753797   -1.776829 H         1 <1>         0.183600 
     42 H           4.737929    3.490829   -2.585861 H         1 <1>         0.129900 
     43 H           6.557490    5.063387   -2.113531 H         1 <1>         0.132400 
     44 H           7.947074    6.317582   -0.493397 H         1 <1>         0.133100 
     45 H           7.489850    6.121158    1.949601 H         1 <1>         0.132500 
     46 H           5.671794    4.692628    2.764939 H         1 <1>         0.132000 
     47 H           2.862337    2.323590    2.878414 H         1 <1>         0.182000 
     48 H           3.370491    3.997566    3.164856 H         1 <1>         0.162100 
     49 H           4.549352    2.689003    3.257138 H         1 <1>         0.169200 
@<TRIPOS>BOND
     1   14   38 1    
     2   29   49 1    
     3   13   37 1    
     4    6   34 1    
     5   29   47 1    
     6   14   13 ar   
     7    7   14 ar   
     8   28   29 1    
     9   29   48 1    
    10   13   10 ar   
    11   26   46 1    
    12   18   17 1    
    13   17   16 1    
    14    6    7 1    
    15    5    6 1    
    16   20   41 1    
    17   16   15 ar   
    18   15    5 ar   
    19   18   28 ar   
    20   28   27 ar   
    21   27   26 ar   
    22   26   25 ar   
    23   19   18 ar   
    24    7    8 ar   
    25   27   22 ar   
    26   25   45 1    
    27   25   24 ar   
    28   16    2 ar   
    29    5    4 ar   
    30   10   11 1    
    31   10    9 ar   
    32   19   20 1    
    33   19   21 ar   
    34   20   39 1    
    35   20   40 1    
    36   22   21 ar   
    37   22   23 ar   
    38   11   12 3    
    39   21   42 1    
    40   24   23 ar   
    41   24   44 1    
    42   23   43 1    
    43    8    9 ar   
    44    8   35 1    
    45    9   36 1    
    46    2    3 ar   
    47    2    1 1    
    48    4    3 ar   
    49    1   31 1    
    50    3   33 1    
    51    1   32 1    
    52    1   30 1    
@<TRIPOS>SUBSTRUCTURE
     1 ****       46 TEMP              0 ****  ****    0 ROOT 
