#	Name:			WHQ-2014-SQER-761-75
#	Creating user name:	Administrator
#	Creation time:		Sun Jul 05 16:18:32 2020

#	Modifying user name:	Administrator
#	Modification time:	Sun Jul 05 16:19:33 2020

@<TRIPOS>MOLECULE
WHQ-2014-SQER-761-75
   44    47     1     0     0
SMALL
MULLIKEN_CHARGES
INVALID_CHARGES
Gaussian 16 #p B3LYP/6-31G* opt
@<TRIPOS>ATOM
      1 C          -1.976609    4.190058   -0.179908 C.3       1 <1>        -0.514600 
      2 C          -1.151264    2.955896    0.065738 C.ar      1 <1>         0.342600 
      3 C           0.222457    3.026784    0.283649 C.ar      1 <1>        -0.260400 
      4 C           0.875620    1.803197    0.497185 C.ar      1 <1>         0.539100 
      5 O           2.219676    1.691933    0.698335 O.3       1 <1>        -0.535100 
      6 C           2.984067    2.816727    0.971985 C.ar      1 <1>         0.332900 
      7 C           2.823940    3.491356    2.208078 C.ar      1 <1>        -0.153700 
      8 C           3.645052    4.550863    2.510800 C.ar      1 <1>        -0.196200 
      9 C           4.657483    4.974729    1.605777 C.ar      1 <1>         0.143100 
     10 C           5.514628    6.062114    1.898916 C.ar      1 <1>        -0.214000 
     11 C           6.494974    6.450650    0.999748 C.ar      1 <1>         0.132500 
     12 C           7.355933    7.555045    1.306782 C.1       1 <1>         0.237100 
     13 N           8.057286    8.451031    1.549424 N.1       1 <1>        -0.474800 
     14 C           6.652171    5.755294   -0.234420 C.ar      1 <1>        -0.141900 
     15 C           5.831597    4.696892   -0.536753 C.ar      1 <1>        -0.193400 
     16 C           4.815661    4.275252    0.364219 C.ar      1 <1>         0.140300 
     17 C           3.952212    3.188739    0.069846 C.ar      1 <1>        -0.239400 
     18 N           0.249515    0.639908    0.490235 N.ar      1 <1>        -0.546100 
     19 C          -1.079308    0.689639    0.265879 C.ar      1 <1>         0.699400 
     20 N          -1.669582   -0.556609    0.268647 N.pl3     1 <1>        -0.770500 
     21 C          -2.987721   -0.976129    0.085337 C.ar      1 <1>         0.382200 
     22 C          -4.070918   -0.112255   -0.160655 C.ar      1 <1>        -0.159400 
     23 C          -5.346889   -0.635575   -0.328488 C.ar      1 <1>        -0.153600 
     24 C          -5.582216   -2.018468   -0.257677 C.ar      1 <1>         0.131400 
     25 C          -6.901904   -2.543120   -0.432557 C.1       1 <1>         0.227300 
     26 N          -7.975357   -2.970700   -0.574611 N.1       1 <1>        -0.484500 
     27 C          -4.498344   -2.879945   -0.011741 C.ar      1 <1>        -0.140500 
     28 C          -3.224161   -2.364378    0.156465 C.ar      1 <1>        -0.205700 
     29 N          -1.815538    1.785662    0.058267 N.ar      1 <1>        -0.538500 
     30 H          -2.476837    4.120117   -1.152219 H         1 <1>         0.182600 
     31 H          -1.367961    5.097925   -0.160164 H         1 <1>         0.159700 
     32 H          -2.762118    4.273800    0.579457 H         1 <1>         0.181700 
     33 H           0.751356    3.970308    0.275355 H         1 <1>         0.156600 
     34 H           2.061864    3.152657    2.902471 H         1 <1>         0.159000 
     35 H           3.533957    5.073139    3.457298 H         1 <1>         0.152600 
     36 H           5.400039    6.594543    2.838429 H         1 <1>         0.163300 
     37 H           7.425875    6.073440   -0.925286 H         1 <1>         0.163000 
     38 H           5.952197    4.166360   -1.477373 H         1 <1>         0.150500 
     39 H           4.056277    2.640850   -0.861601 H         1 <1>         0.156100 
     40 H          -0.990476   -1.287956    0.437664 H         1 <1>         0.349700 
     41 H          -3.896548    0.952375   -0.216405 H         1 <1>         0.185500 
     42 H          -6.178070    0.036435   -0.518126 H         1 <1>         0.157300 
     43 H          -4.663451   -3.950920    0.045815 H         1 <1>         0.158500 
     44 H          -2.393770   -3.040561    0.346087 H         1 <1>         0.138200 
@<TRIPOS>BOND
     1    8   35 1    
     2    7   34 1    
     3   10   36 1    
     4    7    8 ar   
     5    8    9 ar   
     6    6    7 ar   
     7    9   10 ar   
     8   10   11 ar   
     9    9   16 ar   
    10    1   32 1    
    11   28   44 1    
    12    5    6 1    
    13    6   17 ar   
    14   27   43 1    
    15   20   40 1    
    16   12   13 3    
    17   28   27 ar   
    18   21   28 ar   
    19   27   24 ar   
    20    4   18 ar   
    21   19   18 ar   
    22    4    5 1    
    23   20   21 1    
    24   19   20 1    
    25   11   12 1    
    26   21   22 ar   
    27    3    4 ar   
    28   29   19 ar   
    29   24   25 1    
    30   23   24 ar   
    31   25   26 3    
    32   22   23 ar   
    33   22   41 1    
    34   11   14 ar   
    35   23   42 1    
    36    3   33 1    
    37    2    3 ar   
    38    2   29 ar   
    39    2    1 1    
    40    1   31 1    
    41    1   30 1    
    42   16   17 ar   
    43   16   15 ar   
    44   17   39 1    
    45   14   15 ar   
    46   14   37 1    
    47   15   38 1    
@<TRIPOS>SUBSTRUCTURE
     1 ****       13 TEMP              0 ****  ****    0 ROOT 
