#	Name:			WHQ-2014-SQER-761-39
#	Creating user name:	Administrator
#	Creation time:		Sun Jul 05 16:18:26 2020

#	Modifying user name:	Administrator
#	Modification time:	Sun Jul 05 16:19:33 2020

@<TRIPOS>MOLECULE
WHQ-2014-SQER-761-39
   46    49     1     0     0
SMALL
MULLIKEN_CHARGES
INVALID_CHARGES
Gaussian 16 #p B3LYP/6-31G* opt
@<TRIPOS>ATOM
      1 C           1.622787    4.695817   -1.057935 C.3       1 <1>        -0.442400 
      2 C           1.025520    4.329370    0.313138 C.3       1 <1>        -0.334000 
      3 C           0.253153    3.033685    0.297758 C.ar      1 <1>         0.093700 
      4 C          -1.120335    2.898161    0.074128 C.ar      1 <1>         0.064800 
      5 CL         -2.096256    4.334574   -0.216569 Cl        1 <1>         0.014500 
      6 N          -1.788986    1.757461    0.058664 N.ar      1 <1>        -0.496000 
      7 C          -1.059036    0.649557    0.273118 C.ar      1 <1>         0.696500 
      8 N          -1.795437   -0.513163    0.253407 N.pl3     1 <1>        -0.771900 
      9 C          -1.444870   -1.853286    0.430058 C.ar      1 <1>         0.380100 
     10 C          -0.138620   -2.305965    0.691157 C.ar      1 <1>        -0.162000 
     11 C           0.101777   -3.664954    0.850677 C.ar      1 <1>        -0.158300 
     12 C          -0.937887   -4.604415    0.755534 C.ar      1 <1>         0.132000 
     13 C          -0.674079   -6.001207    0.919637 C.1       1 <1>         0.227900 
     14 N          -0.458527   -7.137520    1.051819 N.1       1 <1>        -0.484800 
     15 C          -2.242729   -4.149515    0.494900 C.ar      1 <1>        -0.140600 
     16 C          -2.488880   -2.796041    0.335546 C.ar      1 <1>        -0.204200 
     17 N           0.261267    0.612857    0.486362 N.ar      1 <1>        -0.550300 
     18 C           0.878020    1.786140    0.491422 C.ar      1 <1>         0.545900 
     19 O           2.222928    1.811712    0.693078 O.3       1 <1>        -0.561000 
     20 C           2.899760    0.621238    0.935029 C.ar      1 <1>         0.356700 
     21 C           3.382376   -0.116641   -0.167884 C.ar      1 <1>        -0.145800 
     22 C           4.126249   -1.251319    0.041108 C.ar      1 <1>        -0.206500 
     23 C           4.423462   -1.696355    1.356698 C.ar      1 <1>         0.150600 
     24 C           5.188364   -2.870914    1.587191 C.ar      1 <1>        -0.196800 
     25 C           5.471532   -3.293074    2.865448 C.ar      1 <1>        -0.129000 
     26 C           4.999798   -2.552284    3.974409 C.ar      1 <1>        -0.132100 
     27 C           4.256040   -1.407793    3.791271 C.ar      1 <1>        -0.193200 
     28 C           3.944782   -0.946905    2.484608 C.ar      1 <1>         0.122700 
     29 C           3.173472    0.226593    2.227652 C.ar      1 <1>        -0.188900 
     30 CL          2.556611    1.187221    3.555902 Cl        1 <1>         0.015900 
     31 H           0.837118    4.816395   -1.811338 H         1 <1>         0.157800 
     32 H           2.178024    5.638023   -0.992410 H         1 <1>         0.152200 
     33 H           2.313430    3.919711   -1.404182 H         1 <1>         0.152500 
     34 H           1.832257    4.243543    1.047879 H         1 <1>         0.170700 
     35 H           0.366627    5.134030    0.652030 H         1 <1>         0.166900 
     36 H          -2.775394   -0.328331    0.079385 H         1 <1>         0.352800 
     37 H           0.670718   -1.595404    0.766696 H         1 <1>         0.198200 
     38 H           1.112329   -4.005013    1.053794 H         1 <1>         0.160800 
     39 H          -3.057210   -4.862506    0.418856 H         1 <1>         0.159100 
     40 H          -3.502156   -2.456107    0.134455 H         1 <1>         0.139800 
     41 H           3.151042    0.237840   -1.166720 H         1 <1>         0.151800 
     42 H           4.498741   -1.823392   -0.804180 H         1 <1>         0.147600 
     43 H           5.546448   -3.432242    0.727764 H         1 <1>         0.140900 
     44 H           6.055752   -4.194390    3.026648 H         1 <1>         0.142300 
     45 H           5.225722   -2.890442    4.981702 H         1 <1>         0.142500 
     46 H           3.897450   -0.847630    4.647014 H         1 <1>         0.160800 
@<TRIPOS>BOND
     1   27   46 1    
     2   29   30 1    
     3   26   45 1    
     4   27   26 ar   
     5   28   27 ar   
     6   26   25 ar   
     7    2   35 1    
     8   16   40 1    
     9   29   28 ar   
    10   20   29 ar   
    11    8   36 1    
    12    4    5 1    
    13   15   39 1    
    14   28   23 ar   
    15   16   15 ar   
    16    9   16 ar   
    17    4    6 ar   
    18    7    6 ar   
    19    2   34 1    
    20    8    9 1    
    21    7    8 1    
    22   15   12 ar   
    23    3    4 ar   
    24    9   10 ar   
    25   17    7 ar   
    26   12   13 1    
    27   11   12 ar   
    28    3    2 1    
    29   18    3 ar   
    30   25   44 1    
    31   25   24 ar   
    32   10   11 ar   
    33   10   37 1    
    34   13   14 3    
    35   18   17 ar   
    36    2    1 1    
    37   11   38 1    
    38   19   18 1    
    39   19   20 1    
    40   20   21 ar   
    41   23   24 ar   
    42   23   22 ar   
    43   24   43 1    
    44    1   32 1    
    45    1   31 1    
    46    1   33 1    
    47   21   22 ar   
    48   21   41 1    
    49   22   42 1    
@<TRIPOS>SUBSTRUCTURE
     1 ****       36 TEMP              0 ****  ****    0 ROOT 
