#	Name:			WHQ-2014-SQER-761-45
#	Creating user name:	Administrator
#	Creation time:		Sun Jul 05 16:18:27 2020

#	Modifying user name:	Administrator
#	Modification time:	Sun Jul 05 16:19:33 2020

@<TRIPOS>MOLECULE
WHQ-2014-SQER-761-45
   50    53     1     0     0
SMALL
MULLIKEN_CHARGES
INVALID_CHARGES
Gaussian 16 #p B3LYP/6-31G* opt
@<TRIPOS>ATOM
      1 C           1.655282    4.666222    1.665291 C.3       1 <1>        -0.451000 
      2 C           1.027546    4.359342    0.290578 C.3       1 <1>        -0.152500 
      3 C           2.067355    4.443141   -0.845144 C.3       1 <1>        -0.451600 
      4 C           0.261470    3.044568    0.282262 C.ar      1 <1>         0.098400 
      5 C          -1.114820    2.921391    0.079758 C.ar      1 <1>         0.054700 
      6 CL         -2.108542    4.351533   -0.191132 Cl        1 <1>         0.018800 
      7 N          -1.803309    1.784640    0.064784 N.ar      1 <1>        -0.487100 
      8 C          -1.095535    0.672938    0.264127 C.ar      1 <1>         0.702300 
      9 N          -1.708225   -0.557796    0.269216 N.pl3     1 <1>        -0.771800 
     10 C          -3.040857   -0.945300    0.096971 C.ar      1 <1>         0.380500 
     11 C          -3.309318   -2.326149    0.178223 C.ar      1 <1>        -0.205800 
     12 C          -4.596955   -2.811209    0.020142 C.ar      1 <1>        -0.139900 
     13 C          -5.659659   -1.923982   -0.225241 C.ar      1 <1>         0.132800 
     14 C          -6.992832   -2.417828   -0.389934 C.1       1 <1>         0.229400 
     15 N          -8.076414   -2.821629   -0.523740 N.1       1 <1>        -0.481600 
     16 C          -5.391444   -0.547961   -0.305923 C.ar      1 <1>        -0.153500 
     17 C          -4.101740   -0.054962   -0.148192 C.ar      1 <1>        -0.162300 
     18 N           0.233727    0.620501    0.476296 N.ar      1 <1>        -0.563500 
     19 C           0.868789    1.777696    0.481469 C.ar      1 <1>         0.530200 
     20 O           2.209479    1.772474    0.710023 O.3       1 <1>        -0.562400 
     21 C           2.903598    0.564799    0.789873 C.ar      1 <1>         0.366100 
     22 C           3.073400   -0.228456   -0.369873 C.ar      1 <1>        -0.138400 
     23 C           3.849172   -1.359870   -0.302660 C.ar      1 <1>        -0.203200 
     24 C           4.485850   -1.741273    0.911321 C.ar      1 <1>         0.145400 
     25 C           5.289499   -2.902587    1.001773 C.ar      1 <1>        -0.215300 
     26 C           5.899650   -3.248019    2.197242 C.ar      1 <1>         0.132400 
     27 C           6.710075   -4.427897    2.276635 C.1       1 <1>         0.236700 
     28 N           7.368419   -5.384501    2.347871 N.1       1 <1>        -0.475300 
     29 C           5.724743   -2.433132    3.353197 C.ar      1 <1>        -0.142500 
     30 C           4.950109   -1.301388    3.285347 C.ar      1 <1>        -0.193800 
     31 C           4.310105   -0.921761    2.074095 C.ar      1 <1>         0.138500 
     32 C           3.502084    0.241175    1.981716 C.ar      1 <1>        -0.238900 
     33 H           2.109039    5.663821    1.650176 H         1 <1>         0.149200 
     34 H           0.897340    4.653783    2.456312 H         1 <1>         0.149700 
     35 H           2.434902    3.944324    1.923452 H         1 <1>         0.160600 
     36 H           0.288116    5.141378    0.099681 H         1 <1>         0.161600 
     37 H           1.599925    4.270643   -1.821039 H         1 <1>         0.148600 
     38 H           2.517532    5.442190   -0.860686 H         1 <1>         0.149600 
     39 H           2.870720    3.713146   -0.713634 H         1 <1>         0.161600 
     40 H          -1.047996   -1.305545    0.440447 H         1 <1>         0.350600 
     41 H          -2.494869   -3.021554    0.368035 H         1 <1>         0.138500 
     42 H          -4.788375   -3.877249    0.085473 H         1 <1>         0.160500 
     43 H          -6.206199    0.143673   -0.494879 H         1 <1>         0.162500 
     44 H          -3.907353    1.005849   -0.211786 H         1 <1>         0.199400 
     45 H           2.592014    0.069688   -1.294720 H         1 <1>         0.153800 
     46 H           3.989742   -1.976909   -1.186044 H         1 <1>         0.150600 
     47 H           5.427135   -3.526643    0.123695 H         1 <1>         0.162500 
     48 H           6.210427   -2.719340    4.280252 H         1 <1>         0.162300 
     49 H           4.817107   -0.679841    4.166724 H         1 <1>         0.149100 
     50 H           3.357997    0.878169    2.848792 H         1 <1>         0.153200 
@<TRIPOS>BOND
     1   23   46 1    
     2   22   45 1    
     3    3   37 1    
     4   25   47 1    
     5   22   23 ar   
     6   23   24 ar   
     7   21   22 ar   
     8    3   39 1    
     9    3   38 1    
    10    2    3 1    
    11   24   25 ar   
    12   25   26 ar   
    13   24   31 ar   
    14   20   21 1    
    15   21   32 ar   
    16   27   28 3    
    17   19   20 1    
    18   18   19 ar   
    19    8   18 ar   
    20    9   40 1    
    21   19    4 ar   
    22   11   41 1    
    23   26   27 1    
    24    9    8 1    
    25   10    9 1    
    26    8    7 ar   
    27    4    2 1    
    28    4    5 ar   
    29    2   36 1    
    30    2    1 1    
    31   11   10 ar   
    32   11   12 ar   
    33   10   17 ar   
    34   12   42 1    
    35   12   13 ar   
    36    7    5 ar   
    37    5    6 1    
    38   17   44 1    
    39   17   16 ar   
    40   13   16 ar   
    41   13   14 1    
    42   16   43 1    
    43   14   15 3    
    44   26   29 ar   
    45   31   32 ar   
    46   31   30 ar   
    47   32   50 1    
    48    1   33 1    
    49    1   35 1    
    50    1   34 1    
    51   29   30 ar   
    52   29   48 1    
    53   30   49 1    
@<TRIPOS>SUBSTRUCTURE
     1 ****       41 TEMP              0 ****  ****    0 ROOT 
