#	Name:			WHQ-2014-SQER-761-20
#	Creating user name:	Administrator
#	Creation time:		Sun Jul 05 16:18:24 2020

#	Modifying user name:	Administrator
#	Modification time:	Sun Jul 05 16:19:33 2020

@<TRIPOS>MOLECULE
WHQ-2014-SQER-761-20
   40    43     1     0     0
SMALL
MULLIKEN_CHARGES
INVALID_CHARGES
Gaussian 16 #p B3LYP/6-31G* opt
@<TRIPOS>ATOM
      1 N          -0.291052   -7.116738    1.005083 N.1       1 <1>        -0.485600 
      2 C          -0.524767   -5.983345    0.878058 C.1       1 <1>         0.227300 
      3 C          -0.814779   -4.590837    0.722176 C.ar      1 <1>         0.131200 
      4 C          -2.132694   -4.158793    0.490521 C.ar      1 <1>        -0.140600 
      5 C          -2.406070   -2.809541    0.341740 C.ar      1 <1>        -0.205200 
      6 C          -1.377771   -1.847837    0.418569 C.ar      1 <1>         0.381600 
      7 N          -1.756528   -0.514614    0.255125 N.pl3     1 <1>        -0.764700 
      8 C          -1.044343    0.664382    0.273214 C.ar      1 <1>         0.697000 
      9 N          -1.808893    1.756576    0.062957 N.ar      1 <1>        -0.493400 
     10 C          -1.152702    2.916251    0.071501 C.ar      1 <1>         0.066800 
     11 C           0.219807    3.031178    0.281219 C.ar      1 <1>        -0.216900 
     12 C           0.889169    1.820861    0.487833 C.ar      1 <1>         0.546200 
     13 O           2.229635    1.718330    0.707848 O.3       1 <1>        -0.524300 
     14 C           2.999201    2.864546    0.820796 C.ar      1 <1>         0.315000 
     15 C           3.107965    3.480811    2.088596 C.ar      1 <1>        -0.147500 
     16 C           3.930257    4.567267    2.255225 C.ar      1 <1>        -0.203000 
     17 C           4.683651    5.084572    1.168204 C.ar      1 <1>         0.153400 
     18 C           5.540244    6.206257    1.327364 C.ar      1 <1>        -0.194900 
     19 C           6.268833    6.697652    0.269096 C.ar      1 <1>        -0.129500 
     20 C           6.171071    6.083089   -1.001267 C.ar      1 <1>        -0.132300 
     21 C           5.351639    4.993274   -1.194599 C.ar      1 <1>        -0.193500 
     22 C           4.586397    4.462531   -0.122558 C.ar      1 <1>         0.124600 
     23 C           3.717953    3.337266   -0.259248 C.ar      1 <1>        -0.192700 
     24 CL          3.553177    2.530402   -1.803946 Cl        1 <1>         0.024200 
     25 N           0.275428    0.643446    0.488238 N.ar      1 <1>        -0.532900 
     26 C          -0.057565   -2.277726    0.649468 C.ar      1 <1>        -0.162500 
     27 C           0.209737   -3.633031    0.797963 C.ar      1 <1>        -0.154000 
     28 H          -2.935581   -4.886353    0.428859 H         1 <1>         0.157300 
     29 H          -3.429275   -2.486847    0.163129 H         1 <1>         0.136900 
     30 H          -2.740318   -0.347653    0.085335 H         1 <1>         0.348400 
     31 H          -1.755153    3.806702   -0.100009 H         1 <1>         0.157600 
     32 H           0.724221    3.987777    0.275346 H         1 <1>         0.162300 
     33 H           2.538115    3.064074    2.912842 H         1 <1>         0.156600 
     34 H           4.018395    5.041429    3.228822 H         1 <1>         0.147200 
     35 H           5.608631    6.669910    2.308329 H         1 <1>         0.139600 
     36 H           6.920262    7.556132    0.405508 H         1 <1>         0.140600 
     37 H           6.749168    6.474670   -1.833502 H         1 <1>         0.142000 
     38 H           5.283412    4.528404   -2.171342 H         1 <1>         0.161500 
     39 H           0.738232   -1.549451    0.709051 H         1 <1>         0.196900 
     40 H           1.230224   -3.957695    0.975342 H         1 <1>         0.159200 
@<TRIPOS>BOND
     1   16   34 1    
     2   15   33 1    
     3   18   35 1    
     4   15   16 ar   
     5   16   17 ar   
     6   14   15 ar   
     7   17   18 ar   
     8   18   19 ar   
     9   17   22 ar   
    10   13   14 1    
    11   14   23 ar   
    12   27   40 1    
    13   19   36 1    
    14   12   13 1    
    15    2    1 3    
    16   26   27 ar   
    17   27    3 ar   
    18    3    2 1    
    19   26   39 1    
    20   19   20 ar   
    21    6   26 ar   
    22    4    3 ar   
    23   25   12 ar   
    24   12   11 ar   
    25    8   25 ar   
    26   11   32 1    
    27   11   10 ar   
    28    6    5 ar   
    29    7    6 1    
    30    4   28 1    
    31    5    4 ar   
    32    8    7 1    
    33    8    9 ar   
    34   22   23 ar   
    35   22   21 ar   
    36    5   29 1    
    37    7   30 1    
    38   10    9 ar   
    39   10   31 1    
    40   23   24 1    
    41   20   21 ar   
    42   20   37 1    
    43   21   38 1    
@<TRIPOS>SUBSTRUCTURE
     1 ****       35 TEMP              0 ****  ****    0 ROOT 
