#	Name:			WHQ-2014-SQER-761-26
#	Creating user name:	Administrator
#	Creation time:		Sun Jul 05 16:18:24 2020

#	Modifying user name:	Administrator
#	Modification time:	Sun Jul 05 16:19:33 2020

@<TRIPOS>MOLECULE
WHQ-2014-SQER-761-26
   40    43     1     0     0
SMALL
MULLIKEN_CHARGES
INVALID_CHARGES
Gaussian 16 #p B3LYP/6-31G* opt
@<TRIPOS>ATOM
      1 N          -8.048838   -2.864804   -0.567762 N.1       1 <1>        -0.484400 
      2 C          -6.968806   -2.454207   -0.425743 C.1       1 <1>         0.227700 
      3 C          -5.640637   -1.951084   -0.251252 C.ar      1 <1>         0.131600 
      4 C          -5.380924   -0.573066   -0.331943 C.ar      1 <1>        -0.153400 
      5 C          -4.096240   -0.071002   -0.165143 C.ar      1 <1>        -0.158900 
      6 C          -3.029642   -0.952637    0.089446 C.ar      1 <1>         0.382200 
      7 N          -1.703612   -0.554726    0.270101 N.pl3     1 <1>        -0.768200 
      8 C          -1.097047    0.682182    0.263368 C.ar      1 <1>         0.702800 
      9 N          -1.814005    1.790442    0.055778 N.ar      1 <1>        -0.487500 
     10 C          -1.116753    2.938703    0.074667 C.ar      1 <1>         0.069900 
     11 C           0.247914    3.007334    0.291214 C.ar      1 <1>        -0.212900 
     12 C           0.877236    1.769021    0.493325 C.ar      1 <1>         0.580200 
     13 O           2.221343    1.786754    0.698728 O.3       1 <1>        -0.559400 
     14 C           2.889984    0.592367    0.936794 C.ar      1 <1>         0.331900 
     15 C           3.533369   -0.030169   -0.154702 C.ar      1 <1>        -0.150200 
     16 C           4.286653   -1.160299    0.043933 C.ar      1 <1>        -0.200800 
     17 C           4.429139   -1.717507    1.342011 C.ar      1 <1>         0.154800 
     18 C           5.205919   -2.886774    1.557075 C.ar      1 <1>        -0.226000 
     19 C           5.331585   -3.407628    2.820981 C.ar      1 <1>         0.084000 
     20 BR          6.375957   -4.981204    3.105306 Br        1 <1>        -0.118400 
     21 C           4.699600   -2.801339    3.929534 C.ar      1 <1>        -0.150300 
     22 C           3.942648   -1.667410    3.746256 C.ar      1 <1>        -0.187600 
     23 C           3.781090   -1.089788    2.458844 C.ar      1 <1>         0.093600 
     24 C           3.010046    0.082970    2.211528 C.ar      1 <1>        -0.005100 
     25 BR          2.123422    0.980507    3.637094 Br        1 <1>        -0.096100 
     26 N           0.236499    0.616701    0.480754 N.ar      1 <1>        -0.559600 
     27 C          -3.290167   -2.335725    0.170934 C.ar      1 <1>        -0.205800 
     28 C          -4.573013   -2.829893    0.003945 C.ar      1 <1>        -0.140400 
     29 H          -6.199527    0.112138   -0.528202 H         1 <1>         0.158600 
     30 H          -3.903491    0.990141   -0.227754 H         1 <1>         0.190400 
     31 H          -1.038753   -1.296803    0.448040 H         1 <1>         0.349300 
     32 H          -1.695516    3.844721   -0.092919 H         1 <1>         0.158400 
     33 H           0.801852    3.936908    0.309443 H         1 <1>         0.161000 
     34 H           3.418769    0.411766   -1.139015 H         1 <1>         0.155100 
     35 H           4.784550   -1.641435   -0.793038 H         1 <1>         0.149500 
     36 H           5.696408   -3.360669    0.713141 H         1 <1>         0.159000 
     37 H           4.815669   -3.233950    4.917041 H         1 <1>         0.161700 
     38 H           3.456697   -1.201283    4.595596 H         1 <1>         0.167200 
     39 H          -2.472272   -3.025000    0.368085 H         1 <1>         0.137700 
     40 H          -4.757348   -3.897268    0.069602 H         1 <1>         0.158400 
@<TRIPOS>BOND
     1   22   38 1    
     2   21   37 1    
     3   24   25 1    
     4   22   21 ar   
     5   23   22 ar   
     6   21   19 ar   
     7    2    1 3    
     8    3    2 1    
     9   28    3 ar   
    10    4    3 ar   
    11   24   23 ar   
    12   14   24 ar   
    13   28   40 1    
    14    4   29 1    
    15   23   17 ar   
    16   27   28 ar   
    17    5    4 ar   
    18   19   20 1    
    19   19   18 ar   
    20   27   39 1    
    21    6   27 ar   
    22    5   30 1    
    23    6    5 ar   
    24    7    6 1    
    25    7   31 1    
    26    8    7 1    
    27    8    9 ar   
    28   10    9 ar   
    29   26    8 ar   
    30   10   32 1    
    31   11   10 ar   
    32   12   26 ar   
    33   12   11 ar   
    34   11   33 1    
    35   13   12 1    
    36   13   14 1    
    37   14   15 ar   
    38   17   18 ar   
    39   17   16 ar   
    40   18   36 1    
    41   15   16 ar   
    42   15   34 1    
    43   16   35 1    
@<TRIPOS>SUBSTRUCTURE
     1 ****        1 TEMP              0 ****  ****    0 ROOT 
