#	Name:			WHQ-2014-SQER-761-51
#	Creating user name:	Administrator
#	Creation time:		Sun Jul 05 16:18:28 2020

#	Modifying user name:	Administrator
#	Modification time:	Sun Jul 05 16:19:33 2020

@<TRIPOS>MOLECULE
WHQ-2014-SQER-761-51
   41    44     1     0     0
SMALL
MULLIKEN_CHARGES
INVALID_CHARGES
Gaussian 16 #p B3LYP/6-31G* opt
@<TRIPOS>ATOM
      1 N          -7.974721   -2.979233   -0.552271 N.1       1 <1>        -0.483900 
      2 C          -6.901710   -2.549627   -0.412707 C.1       1 <1>         0.227900 
      3 C          -5.582240   -2.022991   -0.241220 C.ar      1 <1>         0.131800 
      4 C          -4.498141   -2.882674    0.009109 C.ar      1 <1>        -0.140300 
      5 C          -3.224054   -2.365561    0.173744 C.ar      1 <1>        -0.205500 
      6 C          -2.989029   -0.977793    0.094413 C.ar      1 <1>         0.381800 
      7 N          -1.669735   -0.556744    0.273991 N.pl3     1 <1>        -0.766600 
      8 C          -1.082504    0.688821    0.265377 C.ar      1 <1>         0.701400 
      9 N          -1.821617    1.786280    0.054374 N.ar      1 <1>        -0.482300 
     10 C          -1.142811    2.940241    0.069988 C.ar      1 <1>         0.068800 
     11 C           0.224492    3.033770    0.285918 C.ar      1 <1>        -0.212500 
     12 C           0.875432    1.807757    0.491471 C.ar      1 <1>         0.546100 
     13 O           2.220574    1.688857    0.703785 O.3       1 <1>        -0.526200 
     14 C           3.021191    2.812853    0.757533 C.ar      1 <1>         0.296000 
     15 C           3.780606    3.126678   -0.393516 C.ar      1 <1>        -0.153700 
     16 C           4.662107    4.178019   -0.371434 C.ar      1 <1>        -0.194700 
     17 C           4.823732    4.963321    0.801001 C.ar      1 <1>         0.151600 
     18 C           5.729531    6.051174    0.832953 C.ar      1 <1>        -0.218600 
     19 C           5.885246    6.812090    1.978531 C.ar      1 <1>         0.140600 
     20 C           6.805088    7.911751    1.995369 C.1       1 <1>         0.238600 
     21 N           7.549038    8.805799    2.015190 N.1       1 <1>        -0.470500 
     22 C           5.128862    6.502767    3.144072 C.ar      1 <1>        -0.139600 
     23 C           4.244488    5.452708    3.138028 C.ar      1 <1>        -0.191900 
     24 C           4.061212    4.652180    1.977881 C.ar      1 <1>         0.102700 
     25 C           3.158708    3.550558    1.917692 C.ar      1 <1>        -0.015900 
     26 BR          2.118125    3.062782    3.433227 Br        1 <1>        -0.077000 
     27 N           0.247744    0.647428    0.483031 N.ar      1 <1>        -0.542400 
     28 C          -4.072161   -0.115399   -0.155702 C.ar      1 <1>        -0.159100 
     29 C          -5.348044   -0.640381   -0.319961 C.ar      1 <1>        -0.153200 
     30 H          -4.662795   -3.953408    0.073116 H         1 <1>         0.159000 
     31 H          -2.393250   -3.040149    0.367036 H         1 <1>         0.138600 
     32 H          -0.990830   -1.287255    0.447784 H         1 <1>         0.350700 
     33 H          -1.732444    3.838978   -0.100049 H         1 <1>         0.159800 
     34 H           0.741185    3.983836    0.295104 H         1 <1>         0.160800 
     35 H           3.649763    2.509046   -1.275879 H         1 <1>         0.165800 
     36 H           5.248618    4.420686   -1.252831 H         1 <1>         0.157500 
     37 H           6.305932    6.285209   -0.056868 H         1 <1>         0.167300 
     38 H           5.259425    7.106351    4.035981 H         1 <1>         0.167200 
     39 H           3.671082    5.222511    4.028273 H         1 <1>         0.171900 
     40 H          -3.899655    0.949219   -0.217262 H         1 <1>         0.189600 
     41 H          -6.179500    0.030169   -0.512674 H         1 <1>         0.158700 
@<TRIPOS>BOND
     1    5   31 1    
     2    7   32 1    
     3    4   30 1    
     4   15   35 1    
     5    5    4 ar   
     6    6    5 ar   
     7   13   14 1    
     8   12   13 1    
     9   14   15 ar   
    10   15   16 ar   
    11    4    3 ar   
    12   27   12 ar   
    13    8   27 ar   
    14   14   25 ar   
    15    7    6 1    
    16    7    8 1    
    17   16   36 1    
    18   16   17 ar   
    19   25   26 1    
    20   25   24 ar   
    21   12   11 ar   
    22    6   28 ar   
    23   17   24 ar   
    24   17   18 ar   
    25    8    9 ar   
    26   24   23 ar   
    27   18   37 1    
    28   18   19 ar   
    29    3    2 1    
    30    3   29 ar   
    31   23   39 1    
    32   23   22 ar   
    33   19   22 ar   
    34   19   20 1    
    35   22   38 1    
    36    2    1 3    
    37   20   21 3    
    38   11   34 1    
    39   11   10 ar   
    40   28   29 ar   
    41   28   40 1    
    42    9   10 ar   
    43   29   41 1    
    44   10   33 1    
@<TRIPOS>SUBSTRUCTURE
     1 ****       32 TEMP              0 ****  ****    0 ROOT 
