#	Name:			WHQ-2014-SQER-761-57
#	Creating user name:	Administrator
#	Creation time:		Sun Jul 05 16:18:29 2020

#	Modifying user name:	Administrator
#	Modification time:	Sun Jul 05 16:19:33 2020

@<TRIPOS>MOLECULE
WHQ-2014-SQER-761-57
   48    51     1     0     0
SMALL
MULLIKEN_CHARGES
INVALID_CHARGES
Gaussian 16 #p B3LYP/6-31G* opt
@<TRIPOS>ATOM
      1 C          -3.324604    4.025255   -0.297682 C.3       1 <1>        -0.283800 
      2 N          -1.878040    4.042047   -0.166736 N.pl3     1 <1>        -0.645700 
      3 C          -1.139324    2.921883    0.068792 C.ar      1 <1>         0.524100 
      4 N          -1.796965    1.750883    0.062625 N.ar      1 <1>        -0.613500 
      5 C          -1.054197    0.654641    0.272693 C.ar      1 <1>         0.707700 
      6 N          -1.792256   -0.515246    0.248421 N.pl3     1 <1>        -0.778300 
      7 C          -1.444390   -1.854017    0.411390 C.ar      1 <1>         0.382000 
      8 C          -0.131866   -2.315879    0.627502 C.ar      1 <1>        -0.165200 
      9 C           0.105984   -3.676217    0.777528 C.ar      1 <1>        -0.160000 
     10 C          -0.941053   -4.611107    0.717928 C.ar      1 <1>         0.129700 
     11 C          -0.682896   -6.009112    0.877006 C.1       1 <1>         0.225700 
     12 N          -0.476550   -7.147607    1.007448 N.1       1 <1>        -0.487800 
     13 C          -2.251142   -4.148306    0.499628 C.ar      1 <1>        -0.141400 
     14 C          -2.494976   -2.793722    0.349420 C.ar      1 <1>        -0.205900 
     15 N           0.261337    0.607106    0.492296 N.ar      1 <1>        -0.574200 
     16 C           0.880530    1.791166    0.497317 C.ar      1 <1>         0.509400 
     17 O           2.232630    1.807407    0.691601 O.3       1 <1>        -0.580700 
     18 C           2.908416    0.655346    1.079096 C.ar      1 <1>         0.368100 
     19 C           2.641500    0.054415    2.333642 C.ar      1 <1>        -0.142800 
     20 C           3.395873   -1.018419    2.744685 C.ar      1 <1>        -0.205500 
     21 C           4.447844   -1.530096    1.935547 C.ar      1 <1>         0.141800 
     22 C           5.241387   -2.634064    2.344934 C.ar      1 <1>        -0.221300 
     23 C           6.250283   -3.090262    1.531240 C.ar      1 <1>         0.079000 
     24 BR          7.320432   -4.575830    2.083527 Br        1 <1>        -0.126700 
     25 C           6.524826   -2.486636    0.282345 C.ar      1 <1>        -0.152100 
     26 C           5.766877   -1.415085   -0.130889 C.ar      1 <1>        -0.190400 
     27 C           4.713088   -0.905624    0.673950 C.ar      1 <1>         0.136800 
     28 C           3.916068    0.196435    0.267003 C.ar      1 <1>        -0.244000 
     29 C           0.259820    3.018570    0.294191 C.ar      1 <1>         0.058100 
     30 C           0.987935    4.335546    0.297928 C.3       1 <1>        -0.560700 
     31 H          -3.626422    3.324403   -1.080350 H         1 <1>         0.181000 
     32 H          -3.657125    5.029164   -0.572615 H         1 <1>         0.151700 
     33 H          -3.821913    3.726112    0.634018 H         1 <1>         0.164600 
     34 H          -1.424939    4.931641   -0.031949 H         1 <1>         0.335200 
     35 H          -2.771856   -0.327570    0.078741 H         1 <1>         0.342000 
     36 H           0.681560   -1.607127    0.674057 H         1 <1>         0.200100 
     37 H           1.121299   -4.022577    0.943728 H         1 <1>         0.158800 
     38 H          -3.071571   -4.857115    0.449797 H         1 <1>         0.154700 
     39 H          -3.512677   -2.448301    0.182071 H         1 <1>         0.132800 
     40 H           1.843176    0.448026    2.953042 H         1 <1>         0.148200 
     41 H           3.197054   -1.486483    3.705337 H         1 <1>         0.144600 
     42 H           5.045580   -3.110870    3.300109 H         1 <1>         0.156000 
     43 H           7.327714   -2.873436   -0.335338 H         1 <1>         0.156000 
     44 H           5.971597   -0.945988   -1.089822 H         1 <1>         0.142700 
     45 H           4.102209    0.684534   -0.684846 H         1 <1>         0.143700 
     46 H           0.881764    4.860986   -0.661638 H         1 <1>         0.160000 
     47 H           0.614159    5.009043    1.083272 H         1 <1>         0.153300 
     48 H           2.053651    4.186309    0.477177 H         1 <1>         0.192400 
@<TRIPOS>BOND
     1   20   41 1    
     2   19   40 1    
     3   22   42 1    
     4   19   20 ar   
     5   20   21 ar   
     6   18   19 ar   
     7    1   33 1    
     8   30   47 1    
     9   21   22 ar   
    10   22   23 ar   
    11   21   27 ar   
    12   17   18 1    
    13   18   28 ar   
    14   23   24 1    
    15    2   34 1    
    16   30   48 1    
    17   29   30 1    
    18   30   46 1    
    19   16   17 1    
    20   29   16 ar   
    21   16   15 ar   
    22    3   29 ar   
    23    2    1 1    
    24    1   32 1    
    25    1   31 1    
    26   15    5 ar   
    27    3    4 ar   
    28    3    2 1    
    29    5    4 ar   
    30    5    6 1    
    31    6    7 1    
    32    6   35 1    
    33    7    8 ar   
    34    7   14 ar   
    35    8   36 1    
    36   14   39 1    
    37    8    9 ar   
    38   14   13 ar   
    39    9   37 1    
    40    9   10 ar   
    41   13   10 ar   
    42   13   38 1    
    43   10   11 1    
    44   11   12 3    
    45   23   25 ar   
    46   27   28 ar   
    47   27   26 ar   
    48   28   45 1    
    49   25   26 ar   
    50   25   43 1    
    51   26   44 1    
@<TRIPOS>SUBSTRUCTURE
     1 ****       42 TEMP              0 ****  ****    0 ROOT 
