#	Name:			WHQ-2014-SQER-761-21
#	Creating user name:	Administrator
#	Creation time:		Sun Jul 05 16:18:24 2020

#	Modifying user name:	Administrator
#	Modification time:	Sun Jul 05 16:19:33 2020

@<TRIPOS>MOLECULE
WHQ-2014-SQER-761-21
   43    46     1     0     0
SMALL
MULLIKEN_CHARGES
INVALID_CHARGES
Gaussian 16 #p B3LYP/6-31G* opt
@<TRIPOS>ATOM
      1 C          -1.964923    4.164958   -0.157875 C.3       1 <1>        -0.511500 
      2 C          -1.135718    2.930552    0.074629 C.ar      1 <1>         0.338500 
      3 C           0.240383    2.999157    0.285017 C.ar      1 <1>        -0.253000 
      4 C           0.888001    1.777847    0.486270 C.ar      1 <1>         0.589500 
      5 O           2.229382    1.815675    0.706038 O.3       1 <1>        -0.562900 
      6 C           2.921687    0.623057    0.882652 C.ar      1 <1>         0.327500 
      7 C           3.135843    0.171313    2.203191 C.ar      1 <1>        -0.149600 
      8 C           3.885693   -0.956338    2.428242 C.ar      1 <1>        -0.203600 
      9 C           4.454924   -1.681088    1.347943 C.ar      1 <1>         0.150500 
     10 C           5.227922   -2.852582    1.566797 C.ar      1 <1>        -0.197800 
     11 C           5.775289   -3.548290    0.513915 C.ar      1 <1>        -0.129200 
     12 C           5.572179   -3.096933   -0.811371 C.ar      1 <1>        -0.132700 
     13 C           4.829415   -1.965231   -1.062922 C.ar      1 <1>        -0.186200 
     14 C           4.248927   -1.224881    0.001055 C.ar      1 <1>         0.086800 
     15 C           3.465259   -0.048539   -0.190718 C.ar      1 <1>        -0.011000 
     16 BR          3.138484    0.626926   -1.941871 Br        1 <1>        -0.102500 
     17 N           0.268114    0.607112    0.485955 N.ar      1 <1>        -0.552700 
     18 C          -1.055719    0.657586    0.271379 C.ar      1 <1>         0.695200 
     19 N          -1.788830   -0.510895    0.251927 N.pl3     1 <1>        -0.771800 
     20 C          -1.435988   -1.851460    0.406363 C.ar      1 <1>         0.381100 
     21 C          -2.486347   -2.791258    0.355004 C.ar      1 <1>        -0.204600 
     22 C          -2.238646   -4.146405    0.495615 C.ar      1 <1>        -0.141100 
     23 C          -0.924976   -4.608035    0.693063 C.ar      1 <1>         0.130600 
     24 C          -0.660685   -6.006211    0.841417 C.1       1 <1>         0.226600 
     25 N          -0.446084   -7.144100    0.963170 N.1       1 <1>        -0.487400 
     26 C           0.121762   -3.672652    0.742561 C.ar      1 <1>        -0.158900 
     27 C          -0.120400   -2.311992    0.602363 C.ar      1 <1>        -0.161500 
     28 N          -1.794039    1.759377    0.066721 N.ar      1 <1>        -0.551400 
     29 H          -2.751066    4.238808    0.601520 H         1 <1>         0.178500 
     30 H          -1.357314    5.073310   -0.128566 H         1 <1>         0.159000 
     31 H          -2.464371    4.104170   -1.131182 H         1 <1>         0.180000 
     32 H           0.789678    3.931883    0.291175 H         1 <1>         0.152500 
     33 H           2.696988    0.736905    3.018507 H         1 <1>         0.151200 
     34 H           4.051939   -1.308875    3.442451 H         1 <1>         0.145400 
     35 H           5.377438   -3.190006    2.589387 H         1 <1>         0.139300 
     36 H           6.362125   -4.443892    0.696341 H         1 <1>         0.140500 
     37 H           6.005229   -3.650047   -1.639959 H         1 <1>         0.140900 
     38 H           4.675021   -1.625519   -2.080568 H         1 <1>         0.158600 
     39 H          -2.770448   -0.323769    0.090747 H         1 <1>         0.346500 
     40 H          -3.506624   -2.446427    0.203464 H         1 <1>         0.136200 
     41 H          -3.058732   -4.855946    0.454190 H         1 <1>         0.156400 
     42 H           1.140050   -4.017880    0.891388 H         1 <1>         0.160400 
     43 H           0.693725   -1.603758    0.641353 H         1 <1>         0.197500 
@<TRIPOS>BOND
     1    8   34 1    
     2    7   33 1    
     3    7    8 ar   
     4    8    9 ar   
     5   10   35 1    
     6    6    7 ar   
     7    9   10 ar   
     8   10   11 ar   
     9   14    9 ar   
    10    5    6 1    
    11    6   15 ar   
    12    4    5 1    
    13    1   29 1    
    14    3   32 1    
    15    4    3 ar   
    16   17    4 ar   
    17    2    3 ar   
    18   18   17 ar   
    19   11   36 1    
    20    1   30 1    
    21   11   12 ar   
    22   27   43 1    
    23    2    1 1    
    24   28    2 ar   
    25   26   42 1    
    26    1   31 1    
    27   18   28 ar   
    28   19   18 1    
    29   27   26 ar   
    30   20   27 ar   
    31   26   23 ar   
    32   15   14 ar   
    33   14   13 ar   
    34   15   16 1    
    35   19   20 1    
    36   19   39 1    
    37   20   21 ar   
    38   23   24 1    
    39   23   22 ar   
    40   24   25 3    
    41   21   22 ar   
    42   21   40 1    
    43   22   41 1    
    44   12   13 ar   
    45   12   37 1    
    46   13   38 1    
@<TRIPOS>SUBSTRUCTURE
     1 ****       35 TEMP              0 ****  ****    0 ROOT 
