#	Name:			WHQ-2015-BMC-624-3-3o
#	Creating user name:	Administrator
#	Creation time:		Sun Jul 05 16:18:35 2020

#	Modifying user name:	Administrator
#	Modification time:	Sun Jul 05 16:19:33 2020

@<TRIPOS>MOLECULE
WHQ-2015-BMC-624-3-3o
   44    46     1     0     0
SMALL
MULLIKEN_CHARGES
INVALID_CHARGES
Gaussian 16 #p B3LYP/6-31G* opt
@<TRIPOS>ATOM
      1 C           1.012127    4.323373    0.301930 C.3       1 <1>        -0.531000 
      2 C           0.254255    3.025680    0.287292 C.ar      1 <1>         0.085600 
      3 C          -1.112977    2.934010    0.076855 C.ar      1 <1>         0.016300 
      4 N          -1.811697    1.786351    0.059405 N.ar      1 <1>        -0.486800 
      5 C          -1.099610    0.678511    0.263648 C.ar      1 <1>         0.704500 
      6 N          -1.704262   -0.560250    0.268684 N.pl3     1 <1>        -0.768000 
      7 C          -3.030920   -0.957091    0.089056 C.ar      1 <1>         0.382000 
      8 C          -3.291587   -2.340620    0.160201 C.ar      1 <1>        -0.206300 
      9 C          -4.575491   -2.832829   -0.004755 C.ar      1 <1>        -0.140200 
     10 C          -5.643912   -1.951377   -0.247341 C.ar      1 <1>         0.131700 
     11 C          -6.973355   -2.452108   -0.418949 C.1       1 <1>         0.227900 
     12 N          -8.054555   -2.860483   -0.558387 N.1       1 <1>        -0.483700 
     13 C          -5.383881   -0.573031   -0.318165 C.ar      1 <1>        -0.153300 
     14 C          -4.098087   -0.072868   -0.153557 C.ar      1 <1>        -0.159300 
     15 N           0.235119    0.619842    0.481161 N.ar      1 <1>        -0.585600 
     16 C           0.877554    1.773145    0.489199 C.ar      1 <1>         0.559200 
     17 O           2.213192    1.779122    0.701692 O.3       1 <1>        -0.531900 
     18 C           2.870135    0.518539    0.909302 C.3       1 <1>        -0.107700 
     19 C           4.369680    0.715928    1.130955 C.2       1 <1>         0.576300 
     20 O           5.062877   -0.274110    1.321884 O.2       1 <1>        -0.503200 
     21 N           4.800790    2.009935    1.093404 N.am      1 <1>        -0.724900 
     22 C           6.111958    2.509222    1.260495 C.ar      1 <1>         0.358200 
     23 C           6.287926    3.898682    1.175291 C.ar      1 <1>        -0.196400 
     24 C           7.548830    4.467768    1.328700 C.ar      1 <1>        -0.200700 
     25 C           8.634076    3.633367    1.568403 C.ar      1 <1>         0.382900 
     26 F           9.860768    4.177682    1.718387 F         1 <1>        -0.298400 
     27 C           8.484938    2.255278    1.657050 C.ar      1 <1>        -0.213000 
     28 C           7.221828    1.684976    1.503389 C.ar      1 <1>        -0.159400 
     29 H           1.510516    4.489222    1.265100 H         1 <1>         0.168500 
     30 H           0.336024    5.165569    0.125053 H         1 <1>         0.165800 
     31 H           1.787887    4.346807   -0.473361 H         1 <1>         0.168500 
     32 H          -1.693952    3.840236   -0.090004 H         1 <1>         0.150700 
     33 H          -1.039294   -1.304353    0.435494 H         1 <1>         0.346500 
     34 H          -2.473227   -3.032145    0.347332 H         1 <1>         0.137500 
     35 H          -4.759928   -3.900673    0.052799 H         1 <1>         0.159200 
     36 H          -6.203166    0.114154   -0.505090 H         1 <1>         0.158900 
     37 H          -3.905404    0.988672   -0.209285 H         1 <1>         0.190000 
     38 H           2.726207   -0.133390    0.042830 H         1 <1>         0.196000 
     39 H           2.450395    0.009298    1.781720 H         1 <1>         0.195900 
     40 H           4.078105    2.697565    0.922521 H         1 <1>         0.357200 
     41 H           5.431197    4.542188    0.987289 H         1 <1>         0.131600 
     42 H           7.695887    5.540664    1.264585 H         1 <1>         0.150000 
     43 H           9.354812    1.634642    1.845280 H         1 <1>         0.153600 
     44 H           7.086179    0.614610    1.569113 H         1 <1>         0.195300 
@<TRIPOS>BOND
     1   18   39 1    
     2    1   29 1    
     3   18   17 1    
     4   19   18 1    
     5   18   38 1    
     6   17   16 1    
     7    6   33 1    
     8   16   15 ar   
     9   15    5 ar   
    10    5    6 1    
    11    6    7 1    
    12   19   20 2    
    13   21   19 1    
    14   16    2 ar   
    15    5    4 ar   
    16    8   34 1    
    17   21   40 1    
    18   22   21 1    
    19    2    1 1    
    20    2    3 ar   
    21   23   41 1    
    22    7    8 ar   
    23    7   14 ar   
    24    1   30 1    
    25    1   31 1    
    26    8    9 ar   
    27    3    4 ar   
    28    3   32 1    
    29   22   23 ar   
    30   22   28 ar   
    31   23   24 ar   
    32   14   37 1    
    33   14   13 ar   
    34    9   35 1    
    35    9   10 ar   
    36   28   44 1    
    37   28   27 ar   
    38   24   42 1    
    39   24   25 ar   
    40   13   10 ar   
    41   13   36 1    
    42   10   11 1    
    43   27   25 ar   
    44   27   43 1    
    45   25   26 1    
    46   11   12 3    
@<TRIPOS>SUBSTRUCTURE
     1 ****       33 TEMP              0 ****  ****    0 ROOT 
