#	Name:			WHQ-2015-BMC-624-3-3f
#	Creating user name:	Administrator
#	Creation time:		Sun Jul 05 16:18:33 2020

#	Modifying user name:	Administrator
#	Modification time:	Sun Jul 05 16:19:33 2020

@<TRIPOS>MOLECULE
WHQ-2015-BMC-624-3-3f
   42    44     1     0     0
SMALL
MULLIKEN_CHARGES
INVALID_CHARGES
Gaussian 16 #p B3LYP/6-31G* opt
@<TRIPOS>ATOM
      1 N          -8.058584   -2.846363   -0.576760 N.1       1 <1>        -0.483300 
      2 C          -6.977898   -2.438393   -0.432238 C.1       1 <1>         0.228100 
      3 C          -5.648573   -1.938970   -0.255401 C.ar      1 <1>         0.131900 
      4 C          -5.383610   -0.562454   -0.342041 C.ar      1 <1>        -0.153200 
      5 C          -4.097564   -0.064074   -0.173865 C.ar      1 <1>        -0.158200 
      6 C          -3.035191   -0.948316    0.088170 C.ar      1 <1>         0.382600 
      7 N          -1.707291   -0.554638    0.269405 N.pl3     1 <1>        -0.766800 
      8 C          -1.097311    0.681306    0.263106 C.ar      1 <1>         0.709300 
      9 N          -1.812281    1.788339    0.054434 N.ar      1 <1>        -0.489600 
     10 C          -1.115633    2.938367    0.074293 C.ar      1 <1>         0.070900 
     11 C           0.247171    3.008047    0.292427 C.ar      1 <1>        -0.214500 
     12 C           0.881699    1.771371    0.497805 C.ar      1 <1>         0.607800 
     13 O           2.217747    1.787147    0.694304 O.3       1 <1>        -0.485600 
     14 C           2.855829    0.549421    0.951362 C.3       1 <1>        -0.137600 
     15 C           2.548152    0.038887    2.368941 C.2       1 <1>         0.619500 
     16 O           2.066521    0.746269    3.232318 O.2       1 <1>        -0.475500 
     17 N           2.921139   -1.277812    2.547132 N.am      1 <1>        -0.733900 
     18 C           2.867302   -2.036517    3.722191 C.ar      1 <1>         0.317200 
     19 C           2.392514   -1.581425    4.961879 C.ar      1 <1>        -0.169500 
     20 C           2.392558   -2.435213    6.061341 C.ar      1 <1>        -0.148000 
     21 C           2.860472   -3.754265    5.953736 C.ar      1 <1>         0.136000 
     22 C           2.855180   -4.623428    7.091817 C.1       1 <1>         0.235900 
     23 N           2.851061   -5.329481    8.016483 N.1       1 <1>        -0.471300 
     24 C           3.337081   -4.223137    4.716357 C.ar      1 <1>        -0.211800 
     25 C           3.328704   -3.360865    3.641611 C.ar      1 <1>         0.314100 
     26 F           3.782784   -3.787539    2.434837 F         1 <1>        -0.299900 
     27 N           0.237474    0.616472    0.482161 N.ar      1 <1>        -0.592200 
     28 C          -3.301092   -2.329819    0.176185 C.ar      1 <1>        -0.205800 
     29 C          -4.585204   -2.820370    0.007789 C.ar      1 <1>        -0.140000 
     30 H          -6.199060    0.124847   -0.544115 H         1 <1>         0.159600 
     31 H          -3.900776    0.996021   -0.240518 H         1 <1>         0.191500 
     32 H          -1.048756   -1.299672    0.454408 H         1 <1>         0.341800 
     33 H          -1.695669    3.843364   -0.093934 H         1 <1>         0.159000 
     34 H           0.800236    3.938032    0.312402 H         1 <1>         0.160700 
     35 H           3.926739    0.761049    0.870072 H         1 <1>         0.195700 
     36 H           2.577984   -0.198838    0.201135 H         1 <1>         0.177200 
     37 H           3.285824   -1.776691    1.745202 H         1 <1>         0.348400 
     38 H           2.029883   -0.566761    5.044412 H         1 <1>         0.207400 
     39 H           2.024412   -2.076501    7.016462 H         1 <1>         0.170200 
     40 H           3.706106   -5.234823    4.594249 H         1 <1>         0.178800 
     41 H          -2.486699   -3.021391    0.379740 H         1 <1>         0.134200 
     42 H          -4.773779   -3.886736    0.078778 H         1 <1>         0.158900 
@<TRIPOS>BOND
     1   20   39 1    
     2   19   38 1    
     3   10   33 1    
     4   19   20 ar   
     5   20   21 ar   
     6   22   23 3    
     7   15   16 2    
     8   18   19 ar   
     9   11   10 ar   
    10   10    9 ar   
    11   11   34 1    
    12   21   22 1    
    13    4   30 1    
    14    5   31 1    
    15   12   11 ar   
    16    8    9 ar   
    17   21   24 ar   
    18    5    4 ar   
    19    4    3 ar   
    20    6    5 ar   
    21    2    1 3    
    22    3    2 1    
    23   13   12 1    
    24   12   27 ar   
    25   27    8 ar   
    26    8    7 1    
    27    3   29 ar   
    28   15   17 1    
    29   14   15 1    
    30   17   18 1    
    31   18   25 ar   
    32    7    6 1    
    33    6   28 ar   
    34   13   14 1    
    35    7   32 1    
    36   29   28 ar   
    37   29   42 1    
    38   17   37 1    
    39   24   25 ar   
    40   24   40 1    
    41   28   41 1    
    42   14   35 1    
    43   14   36 1    
    44   25   26 1    
@<TRIPOS>SUBSTRUCTURE
     1 ****        1 TEMP              0 ****  ****    0 ROOT 
