#	Name:			WHQ-2015-BMC-624-3-3t
#	Creating user name:	Administrator
#	Creation time:		Sun Jul 05 16:18:36 2020

#	Modifying user name:	Administrator
#	Modification time:	Sun Jul 05 16:19:33 2020

@<TRIPOS>MOLECULE
WHQ-2015-BMC-624-3-3t
   44    46     1     0     0
SMALL
MULLIKEN_CHARGES
INVALID_CHARGES
Gaussian 16 #p B3LYP/6-31G* opt
@<TRIPOS>ATOM
      1 C           1.026706    4.313216    0.275489 C.3       1 <1>        -0.521900 
      2 C           0.257168    3.022945    0.279379 C.ar      1 <1>         0.083400 
      3 C          -1.110742    2.934266    0.079340 C.ar      1 <1>         0.015200 
      4 N          -1.811800    1.786209    0.067139 N.ar      1 <1>        -0.489600 
      5 C          -1.099865    0.678816    0.265114 C.ar      1 <1>         0.706200 
      6 N          -1.707722   -0.561563    0.263534 N.pl3     1 <1>        -0.769100 
      7 C          -3.033788   -0.954453    0.085006 C.ar      1 <1>         0.384000 
      8 C          -4.104854   -0.064785   -0.121081 C.ar      1 <1>        -0.159400 
      9 C          -5.392464   -0.560843   -0.282222 C.ar      1 <1>        -0.153600 
     10 C          -5.652339   -1.940820   -0.243969 C.ar      1 <1>         0.130700 
     11 C          -6.983749   -2.437623   -0.409637 C.1       1 <1>         0.226700 
     12 N          -8.066690   -2.843685   -0.543205 N.1       1 <1>        -0.485800 
     13 C          -4.580418   -2.827896   -0.039386 C.ar      1 <1>        -0.140400 
     14 C          -3.294756   -2.339809    0.122029 C.ar      1 <1>        -0.206100 
     15 N           0.233787    0.617944    0.482536 N.ar      1 <1>        -0.593500 
     16 C           0.879158    1.770878    0.481544 C.ar      1 <1>         0.565300 
     17 O           2.211590    1.786915    0.709349 O.3       1 <1>        -0.485600 
     18 C           2.870619    0.539194    0.837038 C.3       1 <1>        -0.136200 
     19 C           2.990810   -0.175582   -0.522138 C.2       1 <1>         0.615900 
     20 O           2.823563    0.408711   -1.577125 O.2       1 <1>        -0.484000 
     21 N           3.345829   -1.497739   -0.392451 N.am      1 <1>        -0.724500 
     22 C           3.631213   -2.441054   -1.403798 C.ar      1 <1>         0.359300 
     23 C           3.549755   -2.146250   -2.773205 C.ar      1 <1>        -0.158500 
     24 C           3.847748   -3.134470   -3.710670 C.ar      1 <1>        -0.164800 
     25 C           4.222787   -4.408826   -3.292666 C.ar      1 <1>         0.086400 
     26 BR          4.627421   -5.753965   -4.588914 Br        1 <1>        -0.128900 
     27 C           4.305919   -4.713977   -1.935849 C.ar      1 <1>        -0.152800 
     28 C           4.010448   -3.729500   -0.998028 C.ar      1 <1>        -0.196300 
     29 H           1.531341    4.484460    1.233740 H         1 <1>         0.168800 
     30 H           1.804036    4.308449   -0.497367 H         1 <1>         0.181600 
     31 H           0.358904    5.159315    0.085861 H         1 <1>         0.156900 
     32 H          -1.691568    3.840644   -0.086754 H         1 <1>         0.148200 
     33 H          -1.040096   -1.309003    0.399916 H         1 <1>         0.340800 
     34 H          -3.911391    0.997644   -0.153728 H         1 <1>         0.190700 
     35 H          -6.213778    0.130877   -0.440849 H         1 <1>         0.157800 
     36 H          -4.764003   -3.897006   -0.008749 H         1 <1>         0.156700 
     37 H          -2.473781   -3.036074    0.278454 H         1 <1>         0.132700 
     38 H           2.361853   -0.096255    1.570141 H         1 <1>         0.171700 
     39 H           3.871363    0.786176    1.205168 H         1 <1>         0.190600 
     40 H           3.418244   -1.853604    0.552324 H         1 <1>         0.332600 
     41 H           3.255713   -1.156059   -3.091452 H         1 <1>         0.197400 
     42 H           3.784777   -2.906716   -4.769178 H         1 <1>         0.162000 
     43 H           4.598622   -5.707129   -1.613386 H         1 <1>         0.157900 
     44 H           4.078277   -3.968167    0.061621 H         1 <1>         0.131500 
@<TRIPOS>BOND
     1   24   42 1    
     2    1   31 1    
     3    1   30 1    
     4    3   32 1    
     5   23   41 1    
     6    9   35 1    
     7    2    1 1    
     8    1   29 1    
     9   23   24 ar   
    10   24   25 ar   
    11    2    3 ar   
    12    3    4 ar   
    13    8   34 1    
    14   19   20 2    
    15   22   23 ar   
    16   16    2 ar   
    17    5    4 ar   
    18   25   26 1    
    19    8    9 ar   
    20    9   10 ar   
    21    7    8 ar   
    22   11   12 3    
    23   10   11 1    
    24   25   27 ar   
    25   10   13 ar   
    26    5    6 1    
    27   15    5 ar   
    28   16   15 ar   
    29   17   16 1    
    30    6    7 1    
    31    7   14 ar   
    32   21   19 1    
    33   19   18 1    
    34    6   33 1    
    35   18   17 1    
    36   22   21 1    
    37   22   28 ar   
    38   13   14 ar   
    39   13   36 1    
    40   14   37 1    
    41   21   40 1    
    42   27   28 ar   
    43   27   43 1    
    44   18   39 1    
    45   18   38 1    
    46   28   44 1    
@<TRIPOS>SUBSTRUCTURE
     1 ****       42 TEMP              0 ****  ****    0 ROOT 
