#	Name:			WHQ-2014-SQER-761-53
#	Creating user name:	Administrator
#	Creation time:		Sun Jul 05 16:18:28 2020

#	Modifying user name:	Administrator
#	Modification time:	Sun Jul 05 16:19:33 2020

@<TRIPOS>MOLECULE
WHQ-2014-SQER-761-53
   45    48     1     0     0
SMALL
MULLIKEN_CHARGES
INVALID_CHARGES
Gaussian 16 #p B3LYP/6-31G* opt
@<TRIPOS>ATOM
      1 C          -1.423366    5.423551   -0.124701 C.3       1 <1>        -0.301200 
      2 N          -1.914339    4.062247   -0.142463 N.pl3     1 <1>        -0.636100 
      3 C          -1.152754    2.957044    0.069798 C.ar      1 <1>         0.568900 
      4 C           0.235578    3.030693    0.284537 C.ar      1 <1>        -0.281400 
      5 C           0.874527    1.806335    0.479185 C.ar      1 <1>         0.535700 
      6 O           2.212345    1.693030    0.715775 O.3       1 <1>        -0.542900 
      7 C           3.035789    2.806940    0.595197 C.ar      1 <1>         0.324800 
      8 C           3.404684    3.258635   -0.695584 C.ar      1 <1>        -0.152200 
      9 C           4.286636    4.306686   -0.817870 C.ar      1 <1>        -0.205500 
     10 C           4.838487    4.941638    0.328445 C.ar      1 <1>         0.144900 
     11 C           5.752763    6.024030    0.229465 C.ar      1 <1>        -0.193300 
     12 C           6.272299    6.614250    1.359607 C.ar      1 <1>        -0.134300 
     13 C           5.900242    6.146221    2.643765 C.ar      1 <1>        -0.135500 
     14 C           5.017100    5.098096    2.774740 C.ar      1 <1>        -0.189300 
     15 C           4.462259    4.468014    1.628446 C.ar      1 <1>         0.128000 
     16 C           3.545874    3.387140    1.730945 C.ar      1 <1>        -0.236500 
     17 N           0.249421    0.634473    0.475898 N.ar      1 <1>        -0.568500 
     18 C          -1.078618    0.693192    0.265613 C.ar      1 <1>         0.713700 
     19 N          -1.669307   -0.558773    0.278289 N.pl3     1 <1>        -0.776900 
     20 C          -2.981290   -0.987625    0.106014 C.ar      1 <1>         0.385900 
     21 C          -4.072330   -0.134293   -0.147202 C.ar      1 <1>        -0.156100 
     22 C          -5.345690   -0.665376   -0.305082 C.ar      1 <1>        -0.153600 
     23 C          -5.574782   -2.048701   -0.217393 C.ar      1 <1>         0.129400 
     24 C          -6.891972   -2.581337   -0.382157 C.1       1 <1>         0.224700 
     25 N          -7.964544   -3.014460   -0.516335 N.1       1 <1>        -0.488500 
     26 C          -4.484512   -2.900825    0.035338 C.ar      1 <1>        -0.141100 
     27 C          -3.212852   -2.377104    0.193644 C.ar      1 <1>        -0.205700 
     28 N          -1.819618    1.780415    0.058840 N.ar      1 <1>        -0.594600 
     29 H          -0.655344    5.583535   -0.892213 H         1 <1>         0.170200 
     30 H          -0.997989    5.695688    0.850940 H         1 <1>         0.168500 
     31 H          -2.257029    6.096873   -0.334215 H         1 <1>         0.167400 
     32 H          -2.903872    3.889164   -0.239300 H         1 <1>         0.337400 
     33 H           0.770479    3.968477    0.308573 H         1 <1>         0.153500 
     34 H           2.992163    2.760381   -1.567078 H         1 <1>         0.149400 
     35 H           4.580171    4.657826   -1.804084 H         1 <1>         0.139700 
     36 H           6.037425    6.379111   -0.758221 H         1 <1>         0.133500 
     37 H           6.971260    7.441279    1.270705 H         1 <1>         0.134500 
     38 H           6.317326    6.618826    3.528790 H         1 <1>         0.135300 
     39 H           4.732076    4.737079    3.759999 H         1 <1>         0.135700 
     40 H           3.252443    3.007755    2.705257 H         1 <1>         0.146800 
     41 H          -0.982115   -1.281948    0.448759 H         1 <1>         0.347900 
     42 H          -3.902335    0.929841   -0.215854 H         1 <1>         0.172700 
     43 H          -6.181149   -0.000104   -0.500277 H         1 <1>         0.152100 
     44 H          -4.643565   -3.972024    0.106100 H         1 <1>         0.155700 
     45 H          -2.378411   -3.046578    0.388868 H         1 <1>         0.136800 
@<TRIPOS>BOND
     1    9   35 1    
     2    8   34 1    
     3   11   36 1    
     4    8    9 ar   
     5    9   10 ar   
     6    7    8 ar   
     7   10   11 ar   
     8   11   12 ar   
     9    1   29 1    
    10   10   15 ar   
    11    6    7 1    
    12    7   16 ar   
    13    5    6 1    
    14    5   17 ar   
    15   18   17 ar   
    16    4    5 ar   
    17   19   41 1    
    18   27   45 1    
    19    4   33 1    
    20    3    4 ar   
    21   18   19 1    
    22   28   18 ar   
    23   19   20 1    
    24   20   27 ar   
    25   27   26 ar   
    26   20   21 ar   
    27    3   28 ar   
    28    2    3 1    
    29   26   44 1    
    30   26   23 ar   
    31   12   37 1    
    32   21   42 1    
    33   21   22 ar   
    34    2    1 1    
    35    2   32 1    
    36   23   22 ar   
    37   23   24 1    
    38   22   43 1    
    39    1   31 1    
    40    1   30 1    
    41   24   25 3    
    42   12   13 ar   
    43   15   16 ar   
    44   15   14 ar   
    45   16   40 1    
    46   13   14 ar   
    47   13   38 1    
    48   14   39 1    
@<TRIPOS>SUBSTRUCTURE
     1 ****       45 TEMP              0 ****  ****    0 ROOT 
