#	Name:			WHQ-2014-SQER-761-31
#	Creating user name:	Administrator
#	Creation time:		Sun Jul 05 16:18:25 2020

#	Modifying user name:	Administrator
#	Modification time:	Sun Jul 05 16:19:33 2020

@<TRIPOS>MOLECULE
WHQ-2014-SQER-761-31
   40    43     1     0     0
SMALL
MULLIKEN_CHARGES
INVALID_CHARGES
Gaussian 16 #p B3LYP/6-31G* opt
@<TRIPOS>ATOM
      1 N          -0.329239   -7.115038    1.033669 N.1       1 <1>        -0.482400 
      2 C          -0.558018   -5.981168    0.903177 C.1       1 <1>         0.229100 
      3 C          -0.841243   -4.587492    0.742595 C.ar      1 <1>         0.132900 
      4 C           0.187090   -3.634783    0.825777 C.ar      1 <1>        -0.153600 
      5 C          -0.073171   -2.278357    0.671974 C.ar      1 <1>        -0.161400 
      6 C          -1.388986   -1.844960    0.428093 C.ar      1 <1>         0.380200 
      7 N          -1.762225   -0.508227    0.258035 N.pl3     1 <1>        -0.767100 
      8 C          -1.042468    0.661680    0.274134 C.ar      1 <1>         0.701200 
      9 N          -1.804493    1.759930    0.062019 N.ar      1 <1>        -0.494000 
     10 C          -1.149624    2.902400    0.074694 C.ar      1 <1>         0.130000 
     11 CL         -2.099643    4.354121   -0.190092 Cl        1 <1>         0.018900 
     12 C           0.222291    3.034494    0.282170 C.ar      1 <1>        -0.211300 
     13 C           0.890050    1.820853    0.482751 C.ar      1 <1>         0.544200 
     14 O           2.222277    1.725502    0.711980 O.3       1 <1>        -0.530700 
     15 C           3.025970    2.863848    0.634022 C.ar      1 <1>         0.314700 
     16 C           3.434624    3.328921   -0.638115 C.ar      1 <1>        -0.151800 
     17 C           4.291805    4.401388   -0.719968 C.ar      1 <1>        -0.199100 
     18 C           4.775661    5.043075    0.452871 C.ar      1 <1>         0.145500 
     19 C           5.662667    6.150301    0.388636 C.ar      1 <1>        -0.219000 
     20 C           6.108810    6.737106    1.548133 C.ar      1 <1>         0.079700 
     21 BR          7.301386    8.227389    1.462190 Br        1 <1>        -0.118600 
     22 C           5.706936    6.265269    2.819687 C.ar      1 <1>        -0.150500 
     23 C           4.848752    5.193425    2.903001 C.ar      1 <1>        -0.188500 
     24 C           4.358681    4.553221    1.733415 C.ar      1 <1>         0.134600 
     25 C           3.469776    3.447787    1.794773 C.ar      1 <1>        -0.229700 
     26 N           0.275768    0.639778    0.482152 N.ar      1 <1>        -0.531500 
     27 C          -2.421423   -2.800449    0.344504 C.ar      1 <1>        -0.204700 
     28 C          -2.155294   -4.150921    0.498846 C.ar      1 <1>        -0.140100 
     29 H           1.204141   -3.963732    1.013741 H         1 <1>         0.161100 
     30 H           0.725275   -1.553820    0.737903 H         1 <1>         0.196700 
     31 H          -2.745917   -0.339058    0.089028 H         1 <1>         0.353900 
     32 H           0.717311    3.993983    0.291672 H         1 <1>         0.182200 
     33 H           3.073332    2.824603   -1.528683 H         1 <1>         0.155900 
     34 H           4.615354    4.766703   -1.690845 H         1 <1>         0.150300 
     35 H           5.982821    6.525772   -0.577762 H         1 <1>         0.158800 
     36 H           6.079188    6.752182    3.714186 H         1 <1>         0.161000 
     37 H           4.536217    4.824910    3.876550 H         1 <1>         0.148600 
     38 H           3.147077    3.055647    2.754538 H         1 <1>         0.153900 
     39 H          -3.441498   -2.473846    0.156245 H         1 <1>         0.140400 
     40 H          -2.960683   -4.874935    0.431855 H         1 <1>         0.160300 
@<TRIPOS>BOND
     1   23   37 1    
     2   22   36 1    
     3   25   38 1    
     4   23   22 ar   
     5   24   23 ar   
     6   22   20 ar   
     7   25   24 ar   
     8   15   25 ar   
     9   24   18 ar   
    10   27   39 1    
    11   20   21 1    
    12   20   19 ar   
    13    7   31 1    
    14   10   11 1    
    15   28   40 1    
    16   27   28 ar   
    17    6   27 ar   
    18   10    9 ar   
    19    8    9 ar   
    20   28    3 ar   
    21    7    6 1    
    22    8    7 1    
    23   12   10 ar   
    24    6    5 ar   
    25   26    8 ar   
    26    3    2 1    
    27    4    3 ar   
    28   12   32 1    
    29   13   12 ar   
    30    2    1 3    
    31    5    4 ar   
    32    5   30 1    
    33   13   26 ar   
    34    4   29 1    
    35   14   13 1    
    36   14   15 1    
    37   15   16 ar   
    38   18   19 ar   
    39   18   17 ar   
    40   19   35 1    
    41   16   17 ar   
    42   16   33 1    
    43   17   34 1    
@<TRIPOS>SUBSTRUCTURE
     1 ****       31 TEMP              0 ****  ****    0 ROOT 
