#	Name:			WHQ-2015-BMC-624-3-3e
#	Creating user name:	Administrator
#	Creation time:		Sun Jul 05 16:18:33 2020

#	Modifying user name:	Administrator
#	Modification time:	Sun Jul 05 16:19:33 2020

@<TRIPOS>MOLECULE
WHQ-2015-BMC-624-3-3e
   42    44     1     0     0
SMALL
MULLIKEN_CHARGES
INVALID_CHARGES
Gaussian 16 #p B3LYP/6-31G* opt
@<TRIPOS>ATOM
      1 N           4.935307   -6.316512   -4.894406 N.1       1 <1>        -0.476500 
      2 C           4.670029   -5.484804   -4.125008 C.1       1 <1>         0.232500 
      3 C           4.344463   -4.463908   -3.175005 C.ar      1 <1>         0.135300 
      4 C           3.932257   -3.192377   -3.606055 C.ar      1 <1>        -0.152500 
      5 C           3.613021   -2.193787   -2.693371 C.ar      1 <1>        -0.165900 
      6 C           3.705719   -2.459233   -1.316613 C.ar      1 <1>         0.374200 
      7 N           3.401746   -1.505678   -0.327823 N.am      1 <1>        -0.727400 
      8 C           3.006987   -0.192610   -0.484034 C.2       1 <1>         0.616500 
      9 O           2.817913    0.359141   -1.550739 O.2       1 <1>        -0.474900 
     10 C           2.871850    0.543595    0.861225 C.3       1 <1>        -0.137700 
     11 O           2.215339    1.788832    0.708965 O.3       1 <1>        -0.485500 
     12 C           0.884319    1.769854    0.482160 C.ar      1 <1>         0.608200 
     13 C           0.248844    3.006965    0.281657 C.ar      1 <1>        -0.214400 
     14 C          -1.116068    2.938686    0.077972 C.ar      1 <1>         0.070800 
     15 N          -1.813873    1.789151    0.064725 N.ar      1 <1>        -0.489800 
     16 C          -1.097574    0.681507    0.264863 C.ar      1 <1>         0.709200 
     17 N          -1.706710   -0.554940    0.264540 N.pl3     1 <1>        -0.766800 
     18 C          -3.035109   -0.948145    0.087129 C.ar      1 <1>         0.382700 
     19 C          -4.105282   -0.059891   -0.125007 C.ar      1 <1>        -0.158200 
     20 C          -5.392787   -0.557305   -0.284321 C.ar      1 <1>        -0.153200 
     21 C          -5.651643   -1.937035   -0.238304 C.ar      1 <1>         0.131900 
     22 C          -6.983067   -2.435209   -0.401906 C.1       1 <1>         0.228100 
     23 N          -8.065776   -2.842177   -0.533489 N.1       1 <1>        -0.483400 
     24 C          -4.580129   -2.822738   -0.027861 C.ar      1 <1>        -0.140000 
     25 C          -3.294563   -2.332952    0.131831 C.ar      1 <1>        -0.205700 
     26 N           0.237298    0.616357    0.483054 N.ar      1 <1>        -0.592100 
     27 C           4.117793   -3.730922   -0.881859 C.ar      1 <1>        -0.203300 
     28 C           4.433844   -4.723655   -1.796993 C.ar      1 <1>        -0.140200 
     29 H           3.860667   -2.986693   -4.669242 H         1 <1>         0.167200 
     30 H           3.294153   -1.217508   -3.029062 H         1 <1>         0.201900 
     31 H           3.493703   -1.836655    0.624615 H         1 <1>         0.336000 
     32 H           2.355669   -0.083435    1.596487 H         1 <1>         0.174300 
     33 H           3.868906    0.794335    1.237104 H         1 <1>         0.193800 
     34 H           0.804677    3.935557    0.284661 H         1 <1>         0.160500 
     35 H          -1.696755    3.843905   -0.086679 H         1 <1>         0.158700 
     36 H          -1.041272   -1.303490    0.405913 H         1 <1>         0.341500 
     37 H          -3.912664    1.002427   -0.163324 H         1 <1>         0.191500 
     38 H          -6.214301    0.133130   -0.447554 H         1 <1>         0.159500 
     39 H          -4.763374   -3.891651    0.008729 H         1 <1>         0.158600 
     40 H          -2.473574   -3.028031    0.293161 H         1 <1>         0.133700 
     41 H           4.192641   -3.941322    0.182845 H         1 <1>         0.136900 
     42 H           4.751644   -5.702019   -1.451812 H         1 <1>         0.163500 
@<TRIPOS>BOND
     1    4   29 1    
     2   14   35 1    
     3    5   30 1    
     4    5    4 ar   
     5    4    3 ar   
     6   13   14 ar   
     7   14   15 ar   
     8   20   38 1    
     9   13   34 1    
    10    2    1 3    
    11    8    9 2    
    12    6    5 ar   
    13   19   37 1    
    14   12   13 ar   
    15    3    2 1    
    16   16   15 ar   
    17   19   20 ar   
    18   20   21 ar   
    19   18   19 ar   
    20    3   28 ar   
    21   22   23 3    
    22   21   22 1    
    23   26   16 ar   
    24   16   17 1    
    25   11   12 1    
    26   12   26 ar   
    27   21   24 ar   
    28    7    8 1    
    29    8   10 1    
    30   17   18 1    
    31   18   25 ar   
    32   10   11 1    
    33   17   36 1    
    34    6    7 1    
    35    6   27 ar   
    36   24   25 ar   
    37   24   39 1    
    38   25   40 1    
    39    7   31 1    
    40   28   27 ar   
    41   28   42 1    
    42   10   33 1    
    43   10   32 1    
    44   27   41 1    
@<TRIPOS>SUBSTRUCTURE
     1 ****        1 TEMP              0 ****  ****    0 ROOT 
