#	Name:			WHQ-2014-SQER-761-59
#	Creating user name:	Administrator
#	Creation time:		Sun Jul 05 16:18:29 2020

#	Modifying user name:	Administrator
#	Modification time:	Sun Jul 05 16:19:33 2020

@<TRIPOS>MOLECULE
WHQ-2014-SQER-761-59
   51    54     1     0     0
SMALL
MULLIKEN_CHARGES
INVALID_CHARGES
Gaussian 16 #p B3LYP/6-31G* opt
@<TRIPOS>ATOM
      1 C           1.377094    4.830301   -1.124845 C.3       1 <1>        -0.437100 
      2 C           1.020434    4.325784    0.286518 C.3       1 <1>        -0.355800 
      3 C           0.260468    3.020328    0.293011 C.ar      1 <1>         0.041200 
      4 C          -1.139419    2.924007    0.069567 C.ar      1 <1>         0.520100 
      5 N          -1.889501    4.038276   -0.171862 N.pl3     1 <1>        -0.645600 
      6 C          -3.339660    4.009470   -0.255595 C.3       1 <1>        -0.284100 
      7 N          -1.796080    1.751244    0.067323 N.ar      1 <1>        -0.614200 
      8 C          -1.053838    0.654710    0.272341 C.ar      1 <1>         0.707100 
      9 N          -1.791819   -0.515971    0.253833 N.pl3     1 <1>        -0.778100 
     10 C          -1.441428   -1.852501    0.427637 C.ar      1 <1>         0.381500 
     11 C          -2.481354   -2.800319    0.320807 C.ar      1 <1>        -0.205800 
     12 C          -2.233123   -4.153491    0.477228 C.ar      1 <1>        -0.141700 
     13 C          -0.929399   -4.606827    0.747380 C.ar      1 <1>         0.129200 
     14 C          -0.664922   -6.003429    0.907399 C.1       1 <1>         0.225100 
     15 N          -0.451191   -7.140901    1.036165 N.1       1 <1>        -0.489900 
     16 C           0.106402   -3.663541    0.855620 C.ar      1 <1>        -0.160900 
     17 C          -0.135879   -2.304859    0.699719 C.ar      1 <1>        -0.165100 
     18 N           0.262805    0.605357    0.482695 N.ar      1 <1>        -0.573100 
     19 C           0.881430    1.788601    0.483430 C.ar      1 <1>         0.514700 
     20 O           2.228027    1.808134    0.705734 O.3       1 <1>        -0.581200 
     21 C           2.941194    0.613752    0.799560 C.ar      1 <1>         0.364700 
     22 C           3.135546   -0.184680   -0.353158 C.ar      1 <1>        -0.144400 
     23 C           3.922613   -1.308687   -0.269886 C.ar      1 <1>        -0.209200 
     24 C           4.551671   -1.679442    0.950613 C.ar      1 <1>         0.142600 
     25 C           5.368365   -2.835880    1.062984 C.ar      1 <1>        -0.194500 
     26 C           5.964482   -3.165147    2.259855 C.ar      1 <1>        -0.134100 
     27 C           5.770578   -2.348784    3.400854 C.ar      1 <1>        -0.135400 
     28 C           4.985589   -1.219999    3.325076 C.ar      1 <1>        -0.189200 
     29 C           4.355005   -0.853813    2.105841 C.ar      1 <1>         0.128400 
     30 C           3.532870    0.299956    1.997350 C.ar      1 <1>        -0.240000 
     31 H           1.906715    5.788672   -1.075518 H         1 <1>         0.145900 
     32 H           2.025349    4.110178   -1.634887 H         1 <1>         0.159300 
     33 H           0.481767    4.966602   -1.741995 H         1 <1>         0.145000 
     34 H           1.940107    4.198414    0.864178 H         1 <1>         0.174100 
     35 H           0.443851    5.098171    0.818191 H         1 <1>         0.127500 
     36 H          -1.446808    4.931169   -0.024488 H         1 <1>         0.333500 
     37 H          -3.687510    5.006647   -0.536562 H         1 <1>         0.150500 
     38 H          -3.659565    3.294307   -1.017488 H         1 <1>         0.180600 
     39 H          -3.807298    3.721567    0.695157 H         1 <1>         0.162700 
     40 H          -2.771107   -0.330814    0.079888 H         1 <1>         0.341200 
     41 H          -3.493778   -2.462439    0.111340 H         1 <1>         0.132000 
     42 H          -3.045114   -4.868388    0.391135 H         1 <1>         0.153600 
     43 H           1.116553   -4.001175    1.065383 H         1 <1>         0.159100 
     44 H           0.669041   -1.590009    0.785915 H         1 <1>         0.203900 
     45 H           2.657985    0.101105   -1.284165 H         1 <1>         0.143100 
     46 H           4.076397   -1.929876   -1.148759 H         1 <1>         0.139300 
     47 H           5.514829   -3.459984    0.184412 H         1 <1>         0.134000 
     48 H           6.585438   -4.053604    2.333397 H         1 <1>         0.134100 
     49 H           6.245015   -2.618516    4.340423 H         1 <1>         0.133400 
     50 H           4.835262   -0.593510    4.200957 H         1 <1>         0.132300 
     51 H           3.371076    0.938894    2.860400 H         1 <1>         0.139400 
@<TRIPOS>BOND
     1   28   50 1    
     2   27   49 1    
     3   30   51 1    
     4   28   27 ar   
     5   29   28 ar   
     6    6   39 1    
     7   27   26 ar   
     8    2   35 1    
     9   30   29 ar   
    10   21   30 ar   
    11   29   24 ar   
    12    6   37 1    
    13    5    6 1    
    14    6   38 1    
    15    2   34 1    
    16    5   36 1    
    17    4    5 1    
    18    4    7 ar   
    19    3    4 ar   
    20    8    7 ar   
    21    9   40 1    
    22    3    2 1    
    23   19    3 ar   
    24    2    1 1    
    25    8    9 1    
    26   18    8 ar   
    27    9   10 1    
    28   11   41 1    
    29   26   48 1    
    30   26   25 ar   
    31   10   11 ar   
    32   11   12 ar   
    33   10   17 ar   
    34   19   18 ar   
    35   20   19 1    
    36   12   42 1    
    37   12   13 ar   
    38   17   44 1    
    39   17   16 ar   
    40   20   21 1    
    41   13   16 ar   
    42   13   14 1    
    43   16   43 1    
    44   14   15 3    
    45   21   22 ar   
    46   24   25 ar   
    47   24   23 ar   
    48   25   47 1    
    49    1   31 1    
    50    1   33 1    
    51    1   32 1    
    52   22   23 ar   
    53   22   45 1    
    54   23   46 1    
@<TRIPOS>SUBSTRUCTURE
     1 ****       41 TEMP              0 ****  ****    0 ROOT 
