#	Name:			WHQ-2014-SQER-761-70
#	Creating user name:	Administrator
#	Creation time:		Sun Jul 05 16:18:31 2020

#	Modifying user name:	Administrator
#	Modification time:	Sun Jul 05 16:19:33 2020

@<TRIPOS>MOLECULE
WHQ-2014-SQER-761-70
   49    52     1     0     0
SMALL
MULLIKEN_CHARGES
INVALID_CHARGES
Gaussian 16 #p B3LYP/6-31G* opt
@<TRIPOS>ATOM
      1 C           2.215903    3.629815    4.293315 C.3       1 <1>        -0.221900 
      2 O           2.235219    3.000071    3.017230 O.3       1 <1>        -0.506500 
      3 C           3.053908    3.511149    2.066529 C.ar      1 <1>         0.374700 
      4 C           3.882180    4.603961    2.212163 C.ar      1 <1>        -0.288900 
      5 C           4.684582    5.045150    1.124119 C.ar      1 <1>         0.148300 
      6 C           5.538851    6.167673    1.246358 C.ar      1 <1>        -0.229900 
      7 C           6.317788    6.586986    0.178489 C.ar      1 <1>         0.140400 
      8 C           7.175684    7.726902    0.324895 C.1       1 <1>         0.234900 
      9 N           7.873622    8.650804    0.438558 N.1       1 <1>        -0.477500 
     10 C           6.270841    5.894295   -1.063677 C.ar      1 <1>        -0.149900 
     11 C           5.449698    4.801059   -1.205026 C.ar      1 <1>        -0.182600 
     12 C           4.646579    4.351324   -0.126527 C.ar      1 <1>         0.087300 
     13 C           3.784372    3.218402   -0.254430 C.ar      1 <1>         0.255100 
     14 O           3.718438    2.591108   -1.466786 O.3       1 <1>        -0.526800 
     15 C           4.193190    1.234610   -1.515957 C.3       1 <1>        -0.228500 
     16 C           3.002521    2.825069    0.812745 C.ar      1 <1>         0.244900 
     17 O           2.218560    1.689502    0.705525 O.3       1 <1>        -0.537800 
     18 C           0.877210    1.808185    0.491964 C.ar      1 <1>         0.566000 
     19 C           0.224677    3.033172    0.283012 C.ar      1 <1>        -0.206900 
     20 C          -1.141997    2.940390    0.069545 C.ar      1 <1>         0.065500 
     21 N          -1.822296    1.786118    0.057893 N.ar      1 <1>        -0.484300 
     22 C          -1.082121    0.689611    0.265386 C.ar      1 <1>         0.699400 
     23 N          -1.670301   -0.557404    0.272752 N.pl3     1 <1>        -0.766600 
     24 C          -2.989376   -0.977538    0.096892 C.ar      1 <1>         0.382400 
     25 C          -4.072692   -0.114548   -0.152062 C.ar      1 <1>        -0.159400 
     26 C          -5.349482   -0.638458   -0.311987 C.ar      1 <1>        -0.153400 
     27 C          -5.585460   -2.020643   -0.230281 C.ar      1 <1>         0.131200 
     28 C          -6.905890   -2.546183   -0.396400 C.1       1 <1>         0.227300 
     29 N          -7.979735   -2.975038   -0.531134 N.1       1 <1>        -0.484800 
     30 C          -4.501221   -2.881060    0.018152 C.ar      1 <1>        -0.140500 
     31 C          -3.226273   -2.365050    0.178440 C.ar      1 <1>        -0.205800 
     32 N           0.247842    0.646838    0.481859 N.ar      1 <1>        -0.552500 
     33 H           1.886463    4.673587    4.216490 H         1 <1>         0.160500 
     34 H           1.501014    3.063677    4.891303 H         1 <1>         0.184000 
     35 H           3.203977    3.592214    4.768387 H         1 <1>         0.163000 
     36 H           3.935943    5.142334    3.151017 H         1 <1>         0.146100 
     37 H           5.581122    6.705089    2.188919 H         1 <1>         0.157100 
     38 H           6.885233    6.239326   -1.888273 H         1 <1>         0.158500 
     39 H           5.395868    4.267785   -2.147247 H         1 <1>         0.161000 
     40 H           3.578518    0.574931   -0.898650 H         1 <1>         0.185200 
     41 H           5.239200    1.182874   -1.190768 H         1 <1>         0.152700 
     42 H           4.121553    0.936956   -2.563639 H         1 <1>         0.170700 
     43 H           0.745737    3.980899    0.277427 H         1 <1>         0.160100 
     44 H          -1.731548    3.838685   -0.103788 H         1 <1>         0.157500 
     45 H          -0.991086   -1.287749    0.445171 H         1 <1>         0.348500 
     46 H          -3.898607    0.949739   -0.215998 H         1 <1>         0.189600 
     47 H          -6.180698    0.032869   -0.503773 H         1 <1>         0.158000 
     48 H          -4.666849   -3.951518    0.083955 H         1 <1>         0.157900 
     49 H          -2.395590   -3.040355    0.370369 H         1 <1>         0.137000 
@<TRIPOS>BOND
     1   31   49 1    
     2   15   41 1    
     3   15   40 1    
     4    1   35 1    
     5   30   48 1    
     6   23   45 1    
     7   15   42 1    
     8   14   15 1    
     9    1   34 1    
    10   31   30 ar   
    11   24   31 ar   
    12    2    1 1    
    13    1   33 1    
    14   16   17 1    
    15   17   18 1    
    16    3    2 1    
    17   30   27 ar   
    18   18   32 ar   
    19   32   22 ar   
    20   16    3 ar   
    21    3    4 ar   
    22   13   16 ar   
    23   23   24 1    
    24   22   23 1    
    25    4   36 1    
    26    4    5 ar   
    27   13   14 1    
    28   13   12 ar   
    29   18   19 ar   
    30   24   25 ar   
    31   22   21 ar   
    32    5   12 ar   
    33    5    6 ar   
    34   12   11 ar   
    35    6   37 1    
    36    6    7 ar   
    37   27   28 1    
    38   27   26 ar   
    39   11   39 1    
    40   11   10 ar   
    41   28   29 3    
    42    7   10 ar   
    43    7    8 1    
    44   10   38 1    
    45   25   26 ar   
    46   25   46 1    
    47   19   43 1    
    48   19   20 ar   
    49    8    9 3    
    50   21   20 ar   
    51   26   47 1    
    52   20   44 1    
@<TRIPOS>SUBSTRUCTURE
     1 ****       45 TEMP              0 ****  ****    0 ROOT 
