#	Name:			WHQ-2015-BMC-624-3-3u
#	Creating user name:	Administrator
#	Creation time:		Sun Jul 05 16:18:36 2020

#	Modifying user name:	Administrator
#	Modification time:	Sun Jul 05 16:19:33 2020

@<TRIPOS>MOLECULE
WHQ-2015-BMC-624-3-3u
   46    48     1     0     0
SMALL
MULLIKEN_CHARGES
INVALID_CHARGES
Gaussian 16 #p B3LYP/6-31G* opt
@<TRIPOS>ATOM
      1 C           1.013380    4.324065    0.313495 C.3       1 <1>        -0.520000 
      2 C           0.255874    3.025797    0.287419 C.ar      1 <1>         0.081000 
      3 C          -1.113170    2.933308    0.076549 C.ar      1 <1>         0.017200 
      4 N          -1.811681    1.786648    0.058787 N.ar      1 <1>        -0.483800 
      5 C          -1.101857    0.676379    0.264592 C.ar      1 <1>         0.704100 
      6 N          -1.704655   -0.561093    0.267171 N.pl3     1 <1>        -0.768600 
      7 C          -3.032613   -0.958134    0.088252 C.ar      1 <1>         0.380900 
      8 C          -3.290196   -2.342324    0.148421 C.ar      1 <1>        -0.206200 
      9 C          -4.574379   -2.834801   -0.014153 C.ar      1 <1>        -0.140000 
     10 C          -5.645063   -1.952430   -0.242952 C.ar      1 <1>         0.132500 
     11 C          -6.975177   -2.453106   -0.410730 C.1       1 <1>         0.228700 
     12 N          -8.056993   -2.860882   -0.546319 N.1       1 <1>        -0.482300 
     13 C          -5.387597   -0.573260   -0.303462 C.ar      1 <1>        -0.153000 
     14 C          -4.101399   -0.072944   -0.141265 C.ar      1 <1>        -0.159200 
     15 N           0.233216    0.621452    0.482174 N.ar      1 <1>        -0.573900 
     16 C           0.874262    1.773600    0.490974 C.ar      1 <1>         0.531900 
     17 O           2.219586    1.780318    0.700270 O.3       1 <1>        -0.520700 
     18 C           2.842602    0.534772    1.049492 C.3       1 <1>        -0.133700 
     19 C           3.188827   -0.360685   -0.144721 C.2       1 <1>         0.596200 
     20 O           3.434126   -1.542162    0.031863 O.2       1 <1>        -0.487000 
     21 N           3.255715    0.304647   -1.345400 N.am      1 <1>        -0.721500 
     22 C           3.577811   -0.197638   -2.614565 C.ar      1 <1>         0.386200 
     23 C           3.922954   -1.542293   -2.841669 C.ar      1 <1>        -0.171800 
     24 C           4.231824   -1.961955   -4.130313 C.ar      1 <1>        -0.166900 
     25 C           4.198069   -1.050165   -5.183947 C.ar      1 <1>         0.282900 
     26 N           4.526373   -1.501655   -6.538156 N.pl3     1 <1>         0.374900 
     27 O           4.488473   -0.667504   -7.444617 O.2       1 <1>        -0.400300 
     28 O           4.821078   -2.687568   -6.691968 O.2       1 <1>        -0.397900 
     29 C           3.858498    0.286566   -4.976761 C.ar      1 <1>        -0.153200 
     30 C           3.549315    0.706917   -3.692472 C.ar      1 <1>        -0.207000 
     31 H           1.774817    4.368498   -0.475022 H         1 <1>         0.162100 
     32 H           0.332469    5.168583    0.170273 H         1 <1>         0.164500 
     33 H           1.536317    4.464572    1.266546 H         1 <1>         0.176900 
     34 H          -1.694480    3.839916   -0.086812 H         1 <1>         0.153300 
     35 H          -1.038753   -1.306612    0.425795 H         1 <1>         0.350400 
     36 H          -2.469749   -3.034323    0.324453 H         1 <1>         0.140500 
     37 H          -4.757186   -3.903284    0.034627 H         1 <1>         0.160700 
     38 H          -6.208669    0.114345   -0.480133 H         1 <1>         0.159700 
     39 H          -3.910994    0.989364   -0.189602 H         1 <1>         0.189700 
     40 H           2.215547   -0.044231    1.727421 H         1 <1>         0.206800 
     41 H           3.770572    0.815510    1.556134 H         1 <1>         0.197600 
     42 H           3.024524    1.289850   -1.299931 H         1 <1>         0.351300 
     43 H           3.945613   -2.234779   -2.012380 H         1 <1>         0.201200 
     44 H           4.500635   -2.992219   -4.328836 H         1 <1>         0.188400 
     45 H           3.841048    0.970976   -5.815808 H         1 <1>         0.186200 
     46 H           3.282251    1.746476   -3.518102 H         1 <1>         0.141500 
@<TRIPOS>BOND
     1   19   20 2    
     2   18   40 1    
     3   18   41 1    
     4   23   43 1    
     5    8   36 1    
     6   18   19 1    
     7   19   21 1    
     8   17   18 1    
     9    9   37 1    
    10   24   44 1    
    11    6   35 1    
    12   23   24 ar   
    13   22   23 ar   
    14    8    9 ar   
    15    7    8 ar   
    16    9   10 ar   
    17   24   25 ar   
    18   21   22 1    
    19   21   42 1    
    20    6    7 1    
    21    5    6 1    
    22   16   15 ar   
    23   15    5 ar   
    24   16   17 1    
    25   22   30 ar   
    26    7   14 ar   
    27   26   28 2    
    28    2   16 ar   
    29   10   11 1    
    30   13   10 ar   
    31    4    5 ar   
    32   11   12 3    
    33   25   26 1    
    34   29   25 ar   
    35   14   13 ar   
    36   14   39 1    
    37   26   27 2    
    38   13   38 1    
    39   30   29 ar   
    40   30   46 1    
    41    3    4 ar   
    42    1   33 1    
    43    2    3 ar   
    44    2    1 1    
    45   29   45 1    
    46    3   34 1    
    47    1   31 1    
    48    1   32 1    
@<TRIPOS>SUBSTRUCTURE
     1 ****       20 TEMP              0 ****  ****    0 ROOT 
