#	Name:			WHQ-2015-BMC-624-3-3r
#	Creating user name:	Administrator
#	Creation time:		Sun Jul 05 16:18:36 2020

#	Modifying user name:	Administrator
#	Modification time:	Sun Jul 05 16:19:33 2020

@<TRIPOS>MOLECULE
WHQ-2015-BMC-624-3-3r
   44    46     1     0     0
SMALL
MULLIKEN_CHARGES
INVALID_CHARGES
Gaussian 16 #p B3LYP/6-31G* opt
@<TRIPOS>ATOM
      1 C           1.011926    4.323994    0.301822 C.3       1 <1>        -0.531400 
      2 C           0.254402    3.025958    0.287349 C.ar      1 <1>         0.085800 
      3 C          -1.113002    2.934025    0.076849 C.ar      1 <1>         0.016500 
      4 N          -1.811523    1.786242    0.059410 N.ar      1 <1>        -0.486500 
      5 C          -1.099582    0.678271    0.263598 C.ar      1 <1>         0.704900 
      6 N          -1.704340   -0.560296    0.268736 N.pl3     1 <1>        -0.768000 
      7 C          -3.031126   -0.957082    0.089114 C.ar      1 <1>         0.381900 
      8 C          -4.098100   -0.072873   -0.154032 C.ar      1 <1>        -0.159200 
      9 C          -5.383962   -0.572953   -0.318686 C.ar      1 <1>        -0.153200 
     10 C          -5.644006   -1.951219   -0.247252 C.ar      1 <1>         0.131800 
     11 C          -6.973482   -2.452063   -0.418902 C.1       1 <1>         0.228000 
     12 N          -8.054481   -2.860791   -0.558342 N.1       1 <1>        -0.483500 
     13 C          -4.575795   -2.832724   -0.004027 C.ar      1 <1>        -0.140200 
     14 C          -3.291824   -2.340575    0.160973 C.ar      1 <1>        -0.206200 
     15 N           0.235248    0.619981    0.481176 N.ar      1 <1>        -0.586100 
     16 C           0.876969    1.773423    0.489093 C.ar      1 <1>         0.559000 
     17 O           2.213404    1.778806    0.701724 O.3       1 <1>        -0.532500 
     18 C           2.868873    0.518408    0.909257 C.3       1 <1>        -0.107300 
     19 C           4.368200    0.716341    1.131936 C.2       1 <1>         0.578000 
     20 O           5.063449   -0.270559    1.322960 O.2       1 <1>        -0.497900 
     21 N           4.797171    2.013917    1.094852 N.am      1 <1>        -0.725300 
     22 C           6.104194    2.514707    1.262214 C.ar      1 <1>         0.363900 
     23 C           7.217407    1.696412    1.506436 C.ar      1 <1>        -0.154800 
     24 C           8.471427    2.286550    1.657942 C.ar      1 <1>        -0.144400 
     25 C           8.649585    3.667616    1.573623 C.ar      1 <1>        -0.126900 
     26 C           7.529837    4.460560    1.330430 C.ar      1 <1>        -0.070500 
     27 CL          7.710068    6.207352    1.216459 Cl        1 <1>        -0.023100 
     28 C           6.264621    3.906250    1.174110 C.ar      1 <1>        -0.198300 
     29 H           0.335520    5.165888    0.125144 H         1 <1>         0.166800 
     30 H           1.787323    4.348026   -0.473730 H         1 <1>         0.169300 
     31 H           1.510237    4.490285    1.264890 H         1 <1>         0.169200 
     32 H          -1.694135    3.840180   -0.089984 H         1 <1>         0.151500 
     33 H          -1.039536   -1.304618    0.435592 H         1 <1>         0.346400 
     34 H          -3.905438    0.988687   -0.210237 H         1 <1>         0.190100 
     35 H          -6.203004    0.114321   -0.506093 H         1 <1>         0.159100 
     36 H          -4.760369   -3.900388    0.054068 H         1 <1>         0.159300 
     37 H          -2.473630   -3.032081    0.348692 H         1 <1>         0.137400 
     38 H           2.726408   -0.133717    0.042643 H         1 <1>         0.197100 
     39 H           2.449344    0.008459    1.781376 H         1 <1>         0.197100 
     40 H           4.071709    2.698853    0.923376 H         1 <1>         0.360500 
     41 H           7.088639    0.625622    1.573282 H         1 <1>         0.192300 
     42 H           9.332156    1.651399    1.847028 H         1 <1>         0.147200 
     43 H           9.627698    4.120005    1.692476 H         1 <1>         0.155400 
     44 H           5.411378    4.551106    0.985526 H         1 <1>         0.147000 
@<TRIPOS>BOND
     1   18   39 1    
     2    1   31 1    
     3   14   37 1    
     4    6   33 1    
     5    6    7 1    
     6    5    6 1    
     7    7   14 ar   
     8   14   13 ar   
     9   13   36 1    
    10   21   40 1    
    11    7    8 ar   
    12    5    4 ar   
    13   15    5 ar   
    14   13   10 ar   
    15    3    4 ar   
    16   16   15 ar   
    17   22   21 1    
    18   21   19 1    
    19   28   44 1    
    20   17   16 1    
    21   16    2 ar   
    22    3   32 1    
    23    2    3 ar   
    24   18   17 1    
    25   19   18 1    
    26   18   38 1    
    27    2    1 1    
    28   28   22 ar   
    29   28   26 ar   
    30   22   23 ar   
    31   26   27 1    
    32   26   25 ar   
    33   23   41 1    
    34   23   24 ar   
    35    1   29 1    
    36    1   30 1    
    37   19   20 2    
    38    8   34 1    
    39    8    9 ar   
    40   10    9 ar   
    41   10   11 1    
    42   25   24 ar   
    43   25   43 1    
    44   24   42 1    
    45    9   35 1    
    46   11   12 3    
@<TRIPOS>SUBSTRUCTURE
     1 ****       44 TEMP              0 ****  ****    0 ROOT 
