#	Name:			WHQ-2014-SQER-761-18
#	Creating user name:	Administrator
#	Creation time:		Sun Jul 05 16:18:23 2020

#	Modifying user name:	Administrator
#	Modification time:	Sun Jul 05 16:19:33 2020

@<TRIPOS>MOLECULE
WHQ-2014-SQER-761-18
   43    46     1     0     0
SMALL
MULLIKEN_CHARGES
INVALID_CHARGES
Gaussian 16 #p B3LYP/6-31G* opt
@<TRIPOS>ATOM
      1 C          -1.980051    4.192080   -0.156496 C.3       1 <1>        -0.514200 
      2 C          -1.151450    2.956335    0.070076 C.ar      1 <1>         0.341700 
      3 C           0.222519    3.026876    0.282081 C.ar      1 <1>        -0.254500 
      4 C           0.876896    1.802504    0.484986 C.ar      1 <1>         0.551100 
      5 O           2.217089    1.692075    0.712068 O.3       1 <1>        -0.528400 
      6 C           3.025788    2.812877    0.641316 C.ar      1 <1>         0.318200 
      7 C           3.515878    3.214285   -0.623130 C.ar      1 <1>        -0.147300 
      8 C           4.390520    4.267899   -0.718312 C.ar      1 <1>        -0.203000 
      9 C           4.820159    4.965567    0.441613 C.ar      1 <1>         0.153000 
     10 C           5.726840    6.055577    0.357906 C.ar      1 <1>        -0.195100 
     11 C           6.139778    6.722660    1.487920 C.ar      1 <1>        -0.129700 
     12 C           5.660144    6.324303    2.757618 C.ar      1 <1>        -0.132500 
     13 C           4.780359    5.271794    2.879069 C.ar      1 <1>        -0.193700 
     14 C           4.334917    4.563043    1.731993 C.ar      1 <1>         0.124800 
     15 C           3.422787    3.465982    1.791433 C.ar      1 <1>        -0.194200 
     16 CL          2.792460    2.923740    3.332206 Cl        1 <1>         0.022600 
     17 N           0.251097    0.639343    0.478722 N.ar      1 <1>        -0.547800 
     18 C          -1.078879    0.690465    0.265992 C.ar      1 <1>         0.699900 
     19 N          -1.670070   -0.556722    0.276004 N.pl3     1 <1>        -0.771400 
     20 C          -2.988730   -0.975485    0.102985 C.ar      1 <1>         0.383000 
     21 C          -4.072232   -0.111818   -0.143994 C.ar      1 <1>        -0.159500 
     22 C          -5.349563   -0.634211   -0.302867 C.ar      1 <1>        -0.153900 
     23 C          -5.586940   -2.016330   -0.222046 C.ar      1 <1>         0.130700 
     24 C          -6.907908   -2.540196   -0.388310 C.1       1 <1>         0.226400 
     25 N          -7.982484   -2.967200   -0.523882 N.1       1 <1>        -0.486300 
     26 C          -4.503136   -2.877643    0.025240 C.ar      1 <1>        -0.140800 
     27 C          -3.227478   -2.363117    0.184445 C.ar      1 <1>        -0.205700 
     28 N          -1.815627    1.785534    0.058007 N.ar      1 <1>        -0.540300 
     29 H          -2.496301    4.127260   -1.120770 H         1 <1>         0.179500 
     30 H          -1.370303    5.099301   -0.141673 H         1 <1>         0.159200 
     31 H          -2.752525    4.272968    0.616445 H         1 <1>         0.181700 
     32 H           0.748488    3.971906    0.297528 H         1 <1>         0.156800 
     33 H           3.190948    2.661148   -1.498509 H         1 <1>         0.155800 
     34 H           4.770710    4.576482   -1.688315 H         1 <1>         0.146400 
     35 H           6.089909    6.352370   -0.622896 H         1 <1>         0.139100 
     36 H           6.833805    7.554527    1.408861 H         1 <1>         0.140100 
     37 H           5.989715    6.854131    3.646951 H         1 <1>         0.141500 
     38 H           4.418492    4.973095    3.856147 H         1 <1>         0.161000 
     39 H          -0.990598   -1.286780    0.449084 H         1 <1>         0.349500 
     40 H          -3.895990    0.952152   -0.206833 H         1 <1>         0.185500 
     41 H          -6.180440    0.037973   -0.493027 H         1 <1>         0.156000 
     42 H          -4.669533   -3.948025    0.090948 H         1 <1>         0.157100 
     43 H          -2.397267   -3.039198    0.375401 H         1 <1>         0.137700 
@<TRIPOS>BOND
     1    8   34 1    
     2    7   33 1    
     3    7    8 ar   
     4    8    9 ar   
     5    6    7 ar   
     6   10   35 1    
     7   27   43 1    
     8   19   39 1    
     9    5    6 1    
    10    4    5 1    
    11    9   10 ar   
    12    9   14 ar   
    13   10   11 ar   
    14   26   42 1    
    15    6   15 ar   
    16   27   26 ar   
    17   20   27 ar   
    18   17    4 ar   
    19   18   17 ar   
    20   19   20 1    
    21   19   18 1    
    22   26   23 ar   
    23    4    3 ar   
    24   20   21 ar   
    25   18   28 ar   
    26   23   24 1    
    27   23   22 ar   
    28    3   32 1    
    29    3    2 ar   
    30   11   36 1    
    31   11   12 ar   
    32   15   14 ar   
    33   15   16 1    
    34   14   13 ar   
    35   24   25 3    
    36   21   22 ar   
    37   21   40 1    
    38   28    2 ar   
    39   22   41 1    
    40    2    1 1    
    41    1   29 1    
    42    1   30 1    
    43    1   31 1    
    44   12   13 ar   
    45   12   37 1    
    46   13   38 1    
@<TRIPOS>SUBSTRUCTURE
     1 ****       39 TEMP              0 ****  ****    0 ROOT 
