#	Name:			WHQ-2014-SQER-761-27
#	Creating user name:	Administrator
#	Creation time:		Sun Jul 05 16:18:25 2020

#	Modifying user name:	Administrator
#	Modification time:	Sun Jul 05 16:19:33 2020

@<TRIPOS>MOLECULE
WHQ-2014-SQER-761-27
   43    46     1     0     0
SMALL
MULLIKEN_CHARGES
INVALID_CHARGES
Gaussian 16 #p B3LYP/6-31G* opt
@<TRIPOS>ATOM
      1 C          -1.977173    4.190397   -0.175298 C.3       1 <1>        -0.514300 
      2 C          -1.151102    2.955828    0.066730 C.ar      1 <1>         0.342100 
      3 C           0.222231    3.026830    0.282931 C.ar      1 <1>        -0.261100 
      4 C           0.877609    1.803099    0.494106 C.ar      1 <1>         0.540800 
      5 O           2.218109    1.691921    0.701882 O.3       1 <1>        -0.536300 
      6 C           2.989070    2.832101    0.905356 C.ar      1 <1>         0.323900 
      7 C           2.926966    3.497843    2.153457 C.ar      1 <1>        -0.152600 
      8 C           3.749581    4.574480    2.388000 C.ar      1 <1>        -0.200000 
      9 C           4.666163    5.024866    1.398590 C.ar      1 <1>         0.144400 
     10 C           5.525338    6.133285    1.622118 C.ar      1 <1>        -0.219800 
     11 C           6.398327    6.530944    0.638526 C.ar      1 <1>         0.079200 
     12 BR          7.553848    8.023755    0.938851 Br        1 <1>        -0.122000 
     13 C           6.469135    5.860515   -0.604908 C.ar      1 <1>        -0.151200 
     14 C           5.645621    4.783807   -0.839939 C.ar      1 <1>        -0.189600 
     15 C           4.724795    4.334588    0.144206 C.ar      1 <1>         0.135500 
     16 C           3.862088    3.229183   -0.078021 C.ar      1 <1>        -0.234900 
     17 N           0.249554    0.639641    0.487546 N.ar      1 <1>        -0.547300 
     18 C          -1.078923    0.690433    0.265878 C.ar      1 <1>         0.698300 
     19 N          -1.669729   -0.556881    0.270182 N.pl3     1 <1>        -0.770700 
     20 C          -2.987540   -0.976129    0.090121 C.ar      1 <1>         0.382700 
     21 C          -3.225117   -2.364346    0.163100 C.ar      1 <1>        -0.205800 
     22 C          -4.499894   -2.879330   -0.001873 C.ar      1 <1>        -0.140700 
     23 C          -5.584053   -2.017570   -0.246520 C.ar      1 <1>         0.130900 
     24 C          -6.904189   -2.541636   -0.418079 C.1       1 <1>         0.226700 
     25 N          -7.978269   -2.968903   -0.557554 N.1       1 <1>        -0.485800 
     26 C          -5.347808   -0.634868   -0.319418 C.ar      1 <1>        -0.153800 
     27 C          -4.071285   -0.112002   -0.154833 C.ar      1 <1>        -0.159600 
     28 N          -1.816175    1.785539    0.058681 N.ar      1 <1>        -0.540000 
     29 H          -2.761784    4.272636    0.585266 H         1 <1>         0.180400 
     30 H          -2.478829    4.122426   -1.147127 H         1 <1>         0.181100 
     31 H          -1.368550    5.098179   -0.154577 H         1 <1>         0.159400 
     32 H           0.750643    3.970427    0.278574 H         1 <1>         0.157100 
     33 H           2.236897    3.139393    2.910719 H         1 <1>         0.154100 
     34 H           3.712323    5.090516    3.343651 H         1 <1>         0.147600 
     35 H           5.486493    6.659362    2.570378 H         1 <1>         0.157200 
     36 H           7.170721    6.200926   -1.358266 H         1 <1>         0.159400 
     37 H           5.694903    4.262970   -1.792605 H         1 <1>         0.147100 
     38 H           3.894707    2.687956   -1.018851 H         1 <1>         0.151700 
     39 H          -0.990067   -1.287656    0.439006 H         1 <1>         0.349000 
     40 H          -2.394648   -3.040747    0.351881 H         1 <1>         0.137500 
     41 H          -4.665404   -3.950125    0.057261 H         1 <1>         0.157500 
     42 H          -6.178951    0.037489   -0.507984 H         1 <1>         0.156400 
     43 H          -3.895935    0.952335   -0.211967 H         1 <1>         0.185500 
@<TRIPOS>BOND
     1   14   37 1    
     2   13   36 1    
     3   16   38 1    
     4   14   13 ar   
     5   15   14 ar   
     6   13   11 ar   
     7    1   30 1    
     8   16   15 ar   
     9    6   16 ar   
    10   15    9 ar   
    11    1   31 1    
    12   26   42 1    
    13    2    1 1    
    14    1   29 1    
    15   11   12 1    
    16   11   10 ar   
    17   24   25 3    
    18   27   43 1    
    19   27   26 ar   
    20   26   23 ar   
    21   23   24 1    
    22    2   28 ar   
    23    3    2 ar   
    24   20   27 ar   
    25   22   23 ar   
    26   18   28 ar   
    27    3   32 1    
    28    4    3 ar   
    29   19   20 1    
    30   20   21 ar   
    31   21   22 ar   
    32   22   41 1    
    33   18   19 1    
    34   17   18 ar   
    35   19   39 1    
    36   21   40 1    
    37    4   17 ar   
    38    5    4 1    
    39    5    6 1    
    40    6    7 ar   
    41    9   10 ar   
    42    9    8 ar   
    43   10   35 1    
    44    7    8 ar   
    45    7   33 1    
    46    8   34 1    
@<TRIPOS>SUBSTRUCTURE
     1 ****       30 TEMP              0 ****  ****    0 ROOT 
