#	Name:			WHQ-2015-BMC-624-3-3n
#	Creating user name:	Administrator
#	Creation time:		Sun Jul 05 16:18:35 2020

#	Modifying user name:	Administrator
#	Modification time:	Sun Jul 05 16:19:33 2020

@<TRIPOS>MOLECULE
WHQ-2015-BMC-624-3-3n
   45    47     1     0     0
SMALL
MULLIKEN_CHARGES
INVALID_CHARGES
Gaussian 16 #p B3LYP/6-31G* opt
@<TRIPOS>ATOM
      1 C          -1.939516    4.198340   -0.158265 C.3       1 <1>        -0.514900 
      2 C          -1.125822    2.954589    0.072372 C.ar      1 <1>         0.345400 
      3 C           0.245360    3.002613    0.288047 C.ar      1 <1>        -0.258400 
      4 C           0.877545    1.767220    0.492118 C.ar      1 <1>         0.588500 
      5 O           2.220876    1.785449    0.700514 O.3       1 <1>        -0.525500 
      6 C           2.864227    0.539307    1.001730 C.3       1 <1>        -0.132700 
      7 C           3.243866   -0.284483   -0.231922 C.2       1 <1>         0.595400 
      8 O           3.537219   -1.463315   -0.118152 O.2       1 <1>        -0.490100 
      9 N           3.278258    0.437799   -1.399342 N.am      1 <1>        -0.727200 
     10 C           3.617636   -0.009147   -2.679102 C.ar      1 <1>         0.322400 
     11 C           4.015326   -1.315925   -3.001448 C.ar      1 <1>        -0.169900 
     12 C           4.331540   -1.641828   -4.317185 C.ar      1 <1>        -0.148500 
     13 C           4.260562   -0.679864   -5.337188 C.ar      1 <1>         0.136200 
     14 C           4.589260   -1.026203   -6.687293 C.1       1 <1>         0.235100 
     15 N           4.856831   -1.308280   -7.783854 N.1       1 <1>        -0.473200 
     16 C           3.863994    0.633393   -5.027224 C.ar      1 <1>        -0.212900 
     17 C           3.554491    0.934154   -3.718298 C.ar      1 <1>         0.317000 
     18 F           3.169290    2.193293   -3.392749 F         1 <1>        -0.297300 
     19 N           0.239900    0.611869    0.482721 N.ar      1 <1>        -0.579200 
     20 C          -1.096123    0.680758    0.265106 C.ar      1 <1>         0.705800 
     21 N          -1.703126   -0.554796    0.267594 N.pl3     1 <1>        -0.771500 
     22 C          -3.031430   -0.950924    0.089763 C.ar      1 <1>         0.380900 
     23 C          -4.100193   -0.066013   -0.141091 C.ar      1 <1>        -0.158500 
     24 C          -5.386626   -0.565944   -0.302069 C.ar      1 <1>        -0.153300 
     25 C          -5.644712   -1.944952   -0.239076 C.ar      1 <1>         0.132500 
     26 C          -6.975129   -2.445229   -0.405706 C.1       1 <1>         0.228600 
     27 N          -8.057178   -2.852677   -0.540645 N.1       1 <1>        -0.482400 
     28 C          -4.574344   -2.827219   -0.008970 C.ar      1 <1>        -0.140100 
     29 C          -3.289856   -2.334942    0.152362 C.ar      1 <1>        -0.205900 
     30 N          -1.807036    1.788706    0.059463 N.ar      1 <1>        -0.540100 
     31 H          -2.447820    4.140101   -1.127103 H         1 <1>         0.183100 
     32 H          -1.320448    5.098960   -0.136970 H         1 <1>         0.161800 
     33 H          -2.718101    4.285203    0.607880 H         1 <1>         0.183000 
     34 H           0.805455    3.928905    0.308372 H         1 <1>         0.153600 
     35 H           2.242015   -0.085341    1.642649 H         1 <1>         0.206700 
     36 H           3.780213    0.813066    1.533367 H         1 <1>         0.197800 
     37 H           3.013133    1.413069   -1.330193 H         1 <1>         0.362100 
     38 H           4.070974   -2.055034   -2.214727 H         1 <1>         0.204700 
     39 H           4.638199   -2.653639   -4.559216 H         1 <1>         0.167700 
     40 H           3.797614    1.402687   -5.787826 H         1 <1>         0.177400 
     41 H          -1.038097   -1.300958    0.427196 H         1 <1>         0.349700 
     42 H          -3.907844    0.995653   -0.191110 H         1 <1>         0.186700 
     43 H          -6.207540    0.121580   -0.479780 H         1 <1>         0.158900 
     44 H          -4.757566   -3.895505    0.041833 H         1 <1>         0.160400 
     45 H          -2.469836   -3.027033    0.329517 H         1 <1>         0.140200 
@<TRIPOS>BOND
     1    7    8 2    
     2    6   35 1    
     3    6   36 1    
     4   11   38 1    
     5   29   45 1    
     6    6    7 1    
     7    5    6 1    
     8    7    9 1    
     9   28   44 1    
    10   21   41 1    
    11   29   28 ar   
    12   22   29 ar   
    13   12   39 1    
    14   11   12 ar   
    15   10   11 ar   
    16   28   25 ar   
    17    4    5 1    
    18   19    4 ar   
    19   20   19 ar   
    20    9   10 1    
    21    9   37 1    
    22   21   22 1    
    23   21   20 1    
    24   12   13 ar   
    25   22   23 ar   
    26   10   17 ar   
    27    4    3 ar   
    28   20   30 ar   
    29   25   26 1    
    30   25   24 ar   
    31   26   27 3    
    32   13   14 1    
    33   13   16 ar   
    34   23   24 ar   
    35   23   42 1    
    36   24   43 1    
    37    3   34 1    
    38    3    2 ar   
    39   17   16 ar   
    40   17   18 1    
    41   30    2 ar   
    42   14   15 3    
    43   16   40 1    
    44    2    1 1    
    45    1   33 1    
    46    1   32 1    
    47    1   31 1    
@<TRIPOS>SUBSTRUCTURE
     1 ****       41 TEMP              0 ****  ****    0 ROOT 
