#	Name:			WHQ-2015-BMC-624-3-3w
#	Creating user name:	Administrator
#	Creation time:		Sun Jul 05 16:18:36 2020

#	Modifying user name:	Administrator
#	Modification time:	Sun Jul 05 16:19:33 2020

@<TRIPOS>MOLECULE
WHQ-2015-BMC-624-3-3w
   45    47     1     0     0
SMALL
MULLIKEN_CHARGES
INVALID_CHARGES
Gaussian 16 #p B3LYP/6-31G* opt
@<TRIPOS>ATOM
      1 C           0.987414    4.333031    0.297014 C.3       1 <1>        -0.530200 
      2 C           0.249682    3.023327    0.286725 C.ar      1 <1>         0.082400 
      3 C          -1.122210    2.909751    0.077272 C.ar      1 <1>         0.017700 
      4 N          -1.794929    1.755243    0.064616 N.ar      1 <1>        -0.492400 
      5 C          -1.060674    0.650961    0.272109 C.ar      1 <1>         0.695500 
      6 N          -1.796391   -0.514667    0.250212 N.pl3     1 <1>        -0.768400 
      7 C          -1.460469   -1.858259    0.414408 C.ar      1 <1>         0.383100 
      8 C          -0.158611   -2.330918    0.660608 C.ar      1 <1>        -0.161100 
      9 C           0.068043   -3.693789    0.808852 C.ar      1 <1>        -0.155900 
     10 C          -0.984003   -4.619249    0.717482 C.ar      1 <1>         0.132000 
     11 C          -0.738138   -6.020414    0.871934 C.1       1 <1>         0.228900 
     12 N          -0.540245   -7.160689    0.997316 N.1       1 <1>        -0.481600 
     13 C          -2.285190   -4.145822    0.471326 C.ar      1 <1>        -0.139800 
     14 C          -2.516167   -2.788802    0.322772 C.ar      1 <1>        -0.203600 
     15 N           0.265734    0.613070    0.486739 N.ar      1 <1>        -0.573600 
     16 C           0.886204    1.785605    0.489580 C.ar      1 <1>         0.558400 
     17 O           2.224158    1.813120    0.700683 O.2       1 <1>        -0.534100 
     18 C           2.910719    0.573893    0.911746 C.3       1 <1>        -0.112700 
     19 C           4.401747    0.826958    1.128756 C.2       1 <1>         0.583100 
     20 O           5.146209   -0.120128    1.325176 O.2       1 <1>        -0.490900 
     21 N           4.776467    2.144628    1.080575 N.am      1 <1>        -0.735500 
     22 C           6.056232    2.681856    1.240857 C.ar      1 <1>         0.323800 
     23 C           7.222715    1.941712    1.487519 C.ar      1 <1>        -0.167300 
     24 C           8.443265    2.595593    1.628777 C.ar      1 <1>        -0.149100 
     25 C           8.530431    3.993224    1.528359 C.ar      1 <1>         0.136400 
     26 C           9.791461    4.655660    1.675373 C.1       1 <1>         0.235400 
     27 N          10.815967    5.193982    1.794840 N.1       1 <1>        -0.472800 
     28 C           7.368497    4.746378    1.281456 C.ar      1 <1>        -0.212700 
     29 C           6.170677    4.078722    1.144854 C.ar      1 <1>         0.315400 
     30 F           5.034311    4.781156    0.906194 F         1 <1>        -0.298500 
     31 H           1.762574    4.368198   -0.478183 H         1 <1>         0.171800 
     32 H           1.485616    4.510502    1.258016 H         1 <1>         0.171800 
     33 H           0.297371    5.163523    0.118949 H         1 <1>         0.165500 
     34 H          -1.716722    3.807135   -0.091043 H         1 <1>         0.153300 
     35 H          -2.775144   -0.320451    0.078419 H         1 <1>         0.351000 
     36 H           0.658074   -1.628794    0.732862 H         1 <1>         0.181800 
     37 H           1.075772   -4.049703    0.998542 H         1 <1>         0.161200 
     38 H          -3.108951   -4.848316    0.397872 H         1 <1>         0.160900 
     39 H          -3.526915   -2.435343    0.132801 H         1 <1>         0.140400 
     40 H           2.512928    0.056130    1.789916 H         1 <1>         0.202100 
     41 H           2.790910   -0.086552    0.047409 H         1 <1>         0.202100 
     42 H           4.033945    2.811394    0.907578 H         1 <1>         0.373300 
     43 H           7.153803    0.865703    1.564448 H         1 <1>         0.206400 
     44 H           9.341236    2.017910    1.819263 H         1 <1>         0.168900 
     45 H           7.397322    5.826586    1.197685 H         1 <1>         0.177300 
@<TRIPOS>BOND
     1   18   40 1    
     2    1   32 1    
     3   13   38 1    
     4   28   45 1    
     5   11   12 3    
     6   26   27 3    
     7   14   39 1    
     8   14   13 ar   
     9   13   10 ar   
    10   10   11 1    
    11   29   30 1    
    12   29   28 ar   
    13   28   25 ar   
    14   25   26 1    
    15    1   33 1    
    16    3   34 1    
    17    7   14 ar   
    18    9   10 ar   
    19   22   29 ar   
    20    2    1 1    
    21    1   31 1    
    22   24   25 ar   
    23    2    3 ar   
    24    3    4 ar   
    25   16    2 ar   
    26    5    4 ar   
    27    6   35 1    
    28    6    7 1    
    29    7    8 ar   
    30   21   22 1    
    31   22   23 ar   
    32   21   42 1    
    33   15    5 ar   
    34    5    6 1    
    35   17   16 1    
    36   16   15 ar   
    37   24   44 1    
    38   23   24 ar   
    39    8    9 ar   
    40    9   37 1    
    41   18   17 1    
    42   19   21 1    
    43   23   43 1    
    44    8   36 1    
    45   18   19 1    
    46   18   41 1    
    47   19   20 2    
@<TRIPOS>SUBSTRUCTURE
     1 ****       34 TEMP              0 ****  ****    0 ROOT 
