#	Name:			WHQ-2014-SQER-761-43
#	Creating user name:	Administrator
#	Creation time:		Sun Jul 05 16:18:27 2020

#	Modifying user name:	Administrator
#	Modification time:	Sun Jul 05 16:19:33 2020

@<TRIPOS>MOLECULE
WHQ-2014-SQER-761-43
   49    52     1     0     0
SMALL
MULLIKEN_CHARGES
INVALID_CHARGES
Gaussian 16 #p B3LYP/6-31G* opt
@<TRIPOS>ATOM
      1 C           2.066468    4.443356   -0.841916 C.3       1 <1>        -0.451500 
      2 C           1.026858    4.358592    0.294035 C.3       1 <1>        -0.151600 
      3 C           1.656621    4.661671    1.668828 C.3       1 <1>        -0.451200 
      4 C           0.260595    3.044215    0.283740 C.ar      1 <1>         0.098800 
      5 C          -1.114176    2.921362    0.079134 C.ar      1 <1>         0.053700 
      6 CL         -2.108447    4.352613   -0.193797 Cl        1 <1>         0.012900 
      7 N          -1.804215    1.784771    0.063321 N.ar      1 <1>        -0.489100 
      8 C          -1.095136    0.674389    0.264245 C.ar      1 <1>         0.700100 
      9 N          -1.707452   -0.558246    0.269059 N.pl3     1 <1>        -0.772100 
     10 C          -3.037687   -0.947087    0.094401 C.ar      1 <1>         0.381400 
     11 C          -4.100027   -0.057703   -0.150395 C.ar      1 <1>        -0.162700 
     12 C          -5.388837   -0.551754   -0.310691 C.ar      1 <1>        -0.153800 
     13 C          -5.655985   -1.928455   -0.233230 C.ar      1 <1>         0.132000 
     14 C          -6.988145   -2.423697   -0.400612 C.1       1 <1>         0.228300 
     15 N          -8.070855   -2.829150   -0.536606 N.1       1 <1>        -0.483800 
     16 C          -4.592284   -2.814713    0.011753 C.ar      1 <1>        -0.140300 
     17 C          -3.305405   -2.328754    0.172382 C.ar      1 <1>        -0.205800 
     18 N           0.232675    0.620477    0.477459 N.ar      1 <1>        -0.560300 
     19 C           0.870775    1.776683    0.483816 C.ar      1 <1>         0.532100 
     20 O           2.208509    1.772759    0.707163 O.3       1 <1>        -0.564200 
     21 C           2.895705    0.556805    0.820940 C.ar      1 <1>         0.357800 
     22 C           3.145695   -0.211059   -0.339379 C.ar      1 <1>        -0.141000 
     23 C           3.908864   -1.349742   -0.237836 C.ar      1 <1>        -0.209700 
     24 C           4.452286   -1.763607    1.009302 C.ar      1 <1>         0.147200 
     25 C           5.244950   -2.934721    1.139874 C.ar      1 <1>        -0.193700 
     26 C           5.758859   -3.305862    2.362113 C.ar      1 <1>        -0.133900 
     27 C           5.503290   -2.519366    3.511904 C.ar      1 <1>        -0.135400 
     28 C           4.739794   -1.377241    3.419318 C.ar      1 <1>        -0.189100 
     29 C           4.194138   -0.967934    2.173335 C.ar      1 <1>         0.126000 
     30 C           3.400767    0.204062    2.045694 C.ar      1 <1>        -0.234900 
     31 H           1.598023    4.274640   -1.817947 H         1 <1>         0.147300 
     32 H           2.519115    5.441510   -0.854855 H         1 <1>         0.147100 
     33 H           2.867294    3.710532   -0.712247 H         1 <1>         0.163900 
     34 H           0.288097    5.141711    0.105414 H         1 <1>         0.159600 
     35 H           0.899207    4.648583    2.460428 H         1 <1>         0.148200 
     36 H           2.111996    5.658533    1.655586 H         1 <1>         0.146800 
     37 H           2.434728    3.937342    1.924131 H         1 <1>         0.163200 
     38 H          -1.044689   -1.304034    0.439274 H         1 <1>         0.351200 
     39 H          -3.906041    1.003419   -0.211560 H         1 <1>         0.199300 
     40 H          -6.204110    0.139375   -0.499294 H         1 <1>         0.161100 
     41 H          -4.782596   -3.881219    0.074669 H         1 <1>         0.158600 
     42 H          -2.490270   -3.023404    0.361819 H         1 <1>         0.137900 
     43 H           2.734993    0.111021   -1.290556 H         1 <1>         0.144500 
     44 H           4.110292   -1.948751   -1.122447 H         1 <1>         0.140000 
     45 H           5.439999   -3.535425    0.254585 H         1 <1>         0.134200 
     46 H           6.363665   -4.204231    2.449059 H         1 <1>         0.135300 
     47 H           5.914096   -2.821890    4.471192 H         1 <1>         0.136000 
     48 H           4.543431   -0.772489    4.301351 H         1 <1>         0.135200 
     49 H           3.196734    0.823166    2.914130 H         1 <1>         0.144800 
@<TRIPOS>BOND
     1   28   48 1    
     2   27   47 1    
     3    3   35 1    
     4   30   49 1    
     5   28   27 ar   
     6   29   28 ar   
     7   27   26 ar   
     8    3   36 1    
     9    3   37 1    
    10    2    3 1    
    11   30   29 ar   
    12   21   30 ar   
    13   29   24 ar   
    14    5    6 1    
    15   12   40 1    
    16   26   46 1    
    17   26   25 ar   
    18   14   15 3    
    19   11   12 ar   
    20   12   13 ar   
    21   13   14 1    
    22   11   39 1    
    23    2   34 1    
    24   10   11 ar   
    25    5    7 ar   
    26    4    5 ar   
    27   16   13 ar   
    28    8    7 ar   
    29    4    2 1    
    30    2    1 1    
    31   19    4 ar   
    32   10   17 ar   
    33    9   10 1    
    34   16   41 1    
    35   17   16 ar   
    36    8    9 1    
    37   18    8 ar   
    38   17   42 1    
    39    9   38 1    
    40   19   18 ar   
    41   20   19 1    
    42   20   21 1    
    43   21   22 ar   
    44   24   25 ar   
    45   24   23 ar   
    46   25   45 1    
    47    1   32 1    
    48    1   33 1    
    49    1   31 1    
    50   22   23 ar   
    51   22   43 1    
    52   23   44 1    
@<TRIPOS>SUBSTRUCTURE
     1 ****       35 TEMP              0 ****  ****    0 ROOT 
