#	Name:			WHQ-2014-SQER-761-2
#	Creating user name:	Administrator
#	Creation time:		Sun Jul 05 16:18:24 2020

#	Modifying user name:	Administrator
#	Modification time:	Sun Jul 05 16:19:33 2020

@<TRIPOS>MOLECULE
WHQ-2014-SQER-761-2
   43    46     1     0     0
SMALL
MULLIKEN_CHARGES
INVALID_CHARGES
Gaussian 16 #p B3LYP/6-31G* opt
@<TRIPOS>ATOM
      1 C           1.020898    4.315576    0.305146 C.3       1 <1>        -0.519300 
      2 C           0.256171    3.021957    0.287128 C.ar      1 <1>         0.084400 
      3 C          -1.111557    2.934188    0.076955 C.ar      1 <1>         0.013100 
      4 N          -1.813398    1.787834    0.059254 N.ar      1 <1>        -0.487500 
      5 C          -1.099863    0.680049    0.263957 C.ar      1 <1>         0.697400 
      6 N          -1.704959   -0.561140    0.266613 N.pl3     1 <1>        -0.770200 
      7 C          -3.028511   -0.959082    0.085143 C.ar      1 <1>         0.383200 
      8 C          -4.098195   -0.075206   -0.152071 C.ar      1 <1>        -0.160300 
      9 C          -5.383170   -0.575956   -0.318375 C.ar      1 <1>        -0.153700 
     10 C          -5.642100   -1.955157   -0.254752 C.ar      1 <1>         0.130400 
     11 C          -6.970741   -2.456784   -0.427672 C.1       1 <1>         0.226300 
     12 N          -8.051478   -2.866593   -0.568104 N.1       1 <1>        -0.486600 
     13 C          -4.571921   -2.836383   -0.017728 C.ar      1 <1>        -0.140800 
     14 C          -3.288595   -2.343790    0.148921 C.ar      1 <1>        -0.206200 
     15 N           0.231646    0.617719    0.483453 N.ar      1 <1>        -0.558200 
     16 C           0.875643    1.768170    0.490837 C.ar      1 <1>         0.525600 
     17 O           2.217893    1.787633    0.699739 O.3       1 <1>        -0.567800 
     18 C           2.898724    0.590755    0.956786 C.ar      1 <1>         0.287400 
     19 C           2.995250    0.138227    2.249122 C.ar      1 <1>        -0.155000 
     20 C           3.751730   -1.024130    2.528238 C.ar      1 <1>        -0.151500 
     21 C           4.392191   -1.698442    1.513975 C.ar      1 <1>        -0.178600 
     22 C           4.311482   -1.239579    0.171799 C.ar      1 <1>         0.119600 
     23 C           4.967325   -1.910094   -0.895624 C.ar      1 <1>        -0.195500 
     24 C           4.877930   -1.442661   -2.186988 C.ar      1 <1>        -0.130300 
     25 C           4.127795   -0.275958   -2.472718 C.ar      1 <1>        -0.135900 
     26 C           3.477854    0.401003   -1.465431 C.ar      1 <1>        -0.185100 
     27 C           3.548069   -0.062270   -0.125323 C.ar      1 <1>         0.120000 
     28 H           1.795807    4.336936   -0.470354 H         1 <1>         0.171400 
     29 H           1.530246    4.467486    1.263980 H         1 <1>         0.173000 
     30 H           0.348249    5.162647    0.137657 H         1 <1>         0.157500 
     31 H          -1.690320    3.842190   -0.088653 H         1 <1>         0.147400 
     32 H          -1.035637   -1.302471    0.429486 H         1 <1>         0.348800 
     33 H          -3.905730    0.986732   -0.202453 H         1 <1>         0.189500 
     34 H          -6.203389    0.111389   -0.500962 H         1 <1>         0.156800 
     35 H          -4.755094   -3.904744    0.034151 H         1 <1>         0.156500 
     36 H          -2.468975   -3.034987    0.331356 H         1 <1>         0.136300 
     37 H           2.490107    0.677944    3.043615 H         1 <1>         0.141000 
     38 H           3.822580   -1.377751    3.552778 H         1 <1>         0.138600 
     39 H           4.974535   -2.591182    1.727604 H         1 <1>         0.133700 
     40 H           5.545556   -2.803286   -0.671593 H         1 <1>         0.134500 
     41 H           5.385316   -1.966253   -2.992468 H         1 <1>         0.135100 
     42 H           4.067602    0.086785   -3.495138 H         1 <1>         0.135200 
     43 H           2.910489    1.299508   -1.683258 H         1 <1>         0.140100 
@<TRIPOS>BOND
     1   25   42 1    
     2   24   41 1    
     3   25   24 ar   
     4   26   25 ar   
     5   23   24 ar   
     6   26   43 1    
     7   27   26 ar   
     8    1   28 1    
     9   23   40 1    
    10   22   23 ar   
    11    3   31 1    
    12    9   34 1    
    13    1   30 1    
    14    8   33 1    
    15    3    4 ar   
    16    2    3 ar   
    17    8    9 ar   
    18    9   10 ar   
    19    2    1 1    
    20    1   29 1    
    21   11   12 3    
    22    5    4 ar   
    23   27   22 ar   
    24   18   27 ar   
    25    7    8 ar   
    26   10   11 1    
    27   16    2 ar   
    28   13   10 ar   
    29    5    6 1    
    30   15    5 ar   
    31    6    7 1    
    32    7   14 ar   
    33   16   15 ar   
    34   17   16 1    
    35   22   21 ar   
    36   14   13 ar   
    37   13   35 1    
    38    6   32 1    
    39   14   36 1    
    40   17   18 1    
    41   18   19 ar   
    42   21   39 1    
    43   21   20 ar   
    44   19   20 ar   
    45   19   37 1    
    46   20   38 1    
@<TRIPOS>SUBSTRUCTURE
     1 ****       12 TEMP              0 ****  ****    0 ROOT 
