#	Name:			WHQ-2015-BMC-624-3-3k
#	Creating user name:	Administrator
#	Creation time:		Sun Jul 05 16:18:34 2020

#	Modifying user name:	Administrator
#	Modification time:	Sun Jul 05 16:19:33 2020

@<TRIPOS>MOLECULE
WHQ-2015-BMC-624-3-3k
   44    46     1     0     0
SMALL
MULLIKEN_CHARGES
INVALID_CHARGES
Gaussian 16 #p B3LYP/6-31G* opt
@<TRIPOS>ATOM
      1 C          -1.938449    4.198291   -0.156577 C.3       1 <1>        -0.514300 
      2 C          -1.123996    2.954982    0.075075 C.ar      1 <1>         0.344900 
      3 C           0.245972    3.000930    0.281510 C.ar      1 <1>        -0.255500 
      4 C           0.882518    1.765846    0.482401 C.ar      1 <1>         0.616500 
      5 O           2.213534    1.788968    0.707911 O.3       1 <1>        -0.489800 
      6 C           2.872621    0.544018    0.859836 C.3       1 <1>        -0.135900 
      7 C           2.990391   -0.203897   -0.481247 C.2       1 <1>         0.617100 
      8 O           2.831618    0.353795   -1.551016 O.2       1 <1>        -0.480200 
      9 N           3.335845   -1.526275   -0.317313 N.am      1 <1>        -0.724600 
     10 C           3.618993   -2.497597   -1.301301 C.ar      1 <1>         0.358500 
     11 C           3.981496   -3.779517   -0.859268 C.ar      1 <1>        -0.193400 
     12 C           4.271667   -4.780820   -1.780423 C.ar      1 <1>        -0.132000 
     13 C           4.208678   -4.530036   -3.151409 C.ar      1 <1>        -0.127300 
     14 C           3.846919   -3.251045   -3.569990 C.ar      1 <1>        -0.081200 
     15 CL          3.759526   -2.910636   -5.293228 Cl        1 <1>        -0.016100 
     16 C           3.548396   -2.225461   -2.675515 C.ar      1 <1>        -0.161300 
     17 N           0.239848    0.610039    0.485440 N.ar      1 <1>        -0.596600 
     18 C          -1.094049    0.682766    0.265630 C.ar      1 <1>         0.708800 
     19 N          -1.705015   -0.555342    0.263724 N.pl3     1 <1>        -0.771900 
     20 C          -3.031491   -0.948293    0.084961 C.ar      1 <1>         0.383900 
     21 C          -4.102889   -0.059709   -0.122376 C.ar      1 <1>        -0.158600 
     22 C          -5.390378   -0.556418   -0.282830 C.ar      1 <1>        -0.153800 
     23 C          -5.649418   -1.936435   -0.242862 C.ar      1 <1>         0.131100 
     24 C          -6.980735   -2.433924   -0.407452 C.1       1 <1>         0.226800 
     25 N          -8.063651   -2.840467   -0.539774 N.1       1 <1>        -0.485500 
     26 C          -4.577073   -2.822669   -0.037534 C.ar      1 <1>        -0.140300 
     27 C          -3.291571   -2.333632    0.123286 C.ar      1 <1>        -0.205500 
     28 N          -1.807238    1.788221    0.066244 N.ar      1 <1>        -0.544800 
     29 H          -1.320412    5.099457   -0.127747 H         1 <1>         0.160400 
     30 H          -2.438399    4.143274   -1.130171 H         1 <1>         0.181700 
     31 H          -2.723403    4.281600    0.603415 H         1 <1>         0.177800 
     32 H           0.811093    3.924213    0.284709 H         1 <1>         0.152800 
     33 H           3.874849    0.799088    1.218311 H         1 <1>         0.190900 
     34 H           2.367501   -0.075133    1.609442 H         1 <1>         0.169900 
     35 H           3.400785   -1.859525    0.636095 H         1 <1>         0.332900 
     36 H           4.037647   -3.989680    0.206685 H         1 <1>         0.127000 
     37 H           4.551494   -5.769177   -1.427193 H         1 <1>         0.144100 
     38 H           4.433253   -5.303520   -3.876971 H         1 <1>         0.156000 
     39 H           3.267726   -1.242138   -3.023068 H         1 <1>         0.210800 
     40 H          -1.037779   -1.303344    0.399564 H         1 <1>         0.341600 
     41 H          -3.908774    1.002389   -0.156354 H         1 <1>         0.187600 
     42 H          -6.212106    0.134719   -0.442324 H         1 <1>         0.157300 
     43 H          -4.760196   -3.891778   -0.005852 H         1 <1>         0.156800 
     44 H          -2.470222   -3.029275    0.280158 H         1 <1>         0.133400 
@<TRIPOS>BOND
     1   11   36 1    
     2    9   35 1    
     3    6   34 1    
     4   12   37 1    
     5   11   12 ar   
     6   10   11 ar   
     7    6   33 1    
     8   27   44 1    
     9   12   13 ar   
    10    5    6 1    
    11    6    7 1    
    12    9   10 1    
    13    7    9 1    
    14   26   43 1    
    15   19   40 1    
    16   27   26 ar   
    17   20   27 ar   
    18   10   16 ar   
    19   26   23 ar   
    20    4    5 1    
    21   17    4 ar   
    22   18   17 ar   
    23   19   20 1    
    24   19   18 1    
    25    7    8 2    
    26   20   21 ar   
    27    4    3 ar   
    28   18   28 ar   
    29   13   38 1    
    30   13   14 ar   
    31   23   24 1    
    32   23   22 ar   
    33   24   25 3    
    34   21   22 ar   
    35   21   41 1    
    36   16   14 ar   
    37   16   39 1    
    38    3   32 1    
    39    3    2 ar   
    40   22   42 1    
    41   28    2 ar   
    42   14   15 1    
    43    2    1 1    
    44    1   31 1    
    45    1   29 1    
    46    1   30 1    
@<TRIPOS>SUBSTRUCTURE
     1 ****       40 TEMP              0 ****  ****    0 ROOT 
