#	Name:			WHQ-2014-SQER-761-24
#	Creating user name:	Administrator
#	Creation time:		Sun Jul 05 16:18:24 2020

#	Modifying user name:	Administrator
#	Modification time:	Sun Jul 05 16:19:33 2020

@<TRIPOS>MOLECULE
WHQ-2014-SQER-761-24
   43    46     1     0     0
SMALL
MULLIKEN_CHARGES
INVALID_CHARGES
Gaussian 16 #p B3LYP/6-31G* opt
@<TRIPOS>ATOM
      1 C          -1.978929    4.191087   -0.165926 C.3       1 <1>        -0.514200 
      2 C          -1.151148    2.956282    0.067820 C.ar      1 <1>         0.341100 
      3 C           0.221828    3.027453    0.284699 C.ar      1 <1>        -0.250600 
      4 C           0.874466    1.803508    0.490738 C.ar      1 <1>         0.553200 
      5 O           2.218874    1.690000    0.704790 O.3       1 <1>        -0.531700 
      6 C           3.016686    2.818847    0.744161 C.ar      1 <1>         0.292600 
      7 C           3.757661    3.136692   -0.417276 C.ar      1 <1>        -0.153500 
      8 C           4.635143    4.192243   -0.408906 C.ar      1 <1>        -0.198100 
      9 C           4.812282    4.979090    0.759777 C.ar      1 <1>         0.153700 
     10 C           5.717018    6.073486    0.776631 C.ar      1 <1>        -0.225000 
     11 C           5.874520    6.819663    1.918374 C.ar      1 <1>         0.084300 
     12 BR          7.091003    8.290996    1.936594 Br        1 <1>        -0.115500 
     13 C           5.149261    6.521957    3.093678 C.ar      1 <1>        -0.149500 
     14 C           4.267217    5.466427    3.101861 C.ar      1 <1>        -0.187000 
     15 C           4.068564    4.664237    1.946723 C.ar      1 <1>         0.097100 
     16 C           3.169603    3.558613    1.899919 C.ar      1 <1>        -0.013800 
     17 BR          2.151151    3.069627    3.431804 Br        1 <1>        -0.086000 
     18 N           0.250718    0.640547    0.483711 N.ar      1 <1>        -0.548100 
     19 C          -1.078953    0.690352    0.265999 C.ar      1 <1>         0.700300 
     20 N          -1.669105   -0.556931    0.273783 N.pl3     1 <1>        -0.771700 
     21 C          -2.987291   -0.976537    0.096784 C.ar      1 <1>         0.382800 
     22 C          -3.224981   -2.364396    0.175041 C.ar      1 <1>        -0.205700 
     23 C          -4.499926   -2.879649    0.012326 C.ar      1 <1>        -0.140700 
     24 C          -5.583912   -2.018630   -0.235055 C.ar      1 <1>         0.130900 
     25 C          -6.904296   -2.543056   -0.404631 C.1       1 <1>         0.226700 
     26 N          -7.978322   -2.970621   -0.542661 N.1       1 <1>        -0.485800 
     27 C          -5.347476   -0.636202   -0.312886 C.ar      1 <1>        -0.153800 
     28 C          -4.070875   -0.113074   -0.150553 C.ar      1 <1>        -0.159500 
     29 N          -1.815106    1.785199    0.056395 N.ar      1 <1>        -0.540000 
     30 H          -2.755716    4.273070    0.602507 H         1 <1>         0.181800 
     31 H          -1.369793    5.098667   -0.149514 H         1 <1>         0.159400 
     32 H          -2.489825    4.124139   -1.132974 H         1 <1>         0.180200 
     33 H           0.748027    3.972264    0.296254 H         1 <1>         0.155100 
     34 H           3.616949    2.518676   -1.297952 H         1 <1>         0.160800 
     35 H           5.207101    4.436481   -1.299395 H         1 <1>         0.151800 
     36 H           6.279699    6.310818   -0.120188 H         1 <1>         0.160400 
     37 H           5.293034    7.127780    3.981412 H         1 <1>         0.163000 
     38 H           3.709895    5.237013    4.002717 H         1 <1>         0.168400 
     39 H          -0.989701   -1.286999    0.447023 H         1 <1>         0.349400 
     40 H          -2.394657   -3.040306    0.366106 H         1 <1>         0.137700 
     41 H          -4.665734   -3.950267    0.075594 H         1 <1>         0.157500 
     42 H          -6.178616    0.035639   -0.503304 H         1 <1>         0.156400 
     43 H          -3.895324    0.951081   -0.211216 H         1 <1>         0.185600 
@<TRIPOS>BOND
     1    1   30 1    
     2    1   31 1    
     3    1   32 1    
     4    2    1 1    
     5   13   37 1    
     6   27   42 1    
     7   14   38 1    
     8   28   43 1    
     9   14   13 ar   
    10   13   11 ar   
    11   28   27 ar   
    12   27   24 ar   
    13    2   29 ar   
    14    3    2 ar   
    15   25   26 3    
    16   15   14 ar   
    17   16   17 1    
    18   24   25 1    
    19   21   28 ar   
    20   19   29 ar   
    21    3   33 1    
    22   11   12 1    
    23    4    3 ar   
    24   23   24 ar   
    25   10   11 ar   
    26   16   15 ar   
    27   15    9 ar   
    28    6   16 ar   
    29   19   20 1    
    30   18   19 ar   
    31   20   21 1    
    32   21   22 ar   
    33    4   18 ar   
    34    5    4 1    
    35   22   23 ar   
    36   23   41 1    
    37    9   10 ar   
    38   10   36 1    
    39   20   39 1    
    40    9    8 ar   
    41   22   40 1    
    42    6    5 1    
    43    6    7 ar   
    44    8    7 ar   
    45    8   35 1    
    46    7   34 1    
@<TRIPOS>SUBSTRUCTURE
     1 ****       37 TEMP              0 ****  ****    0 ROOT 
