#	Name:			WHQ-2014-SQER-761-66
#	Creating user name:	Administrator
#	Creation time:		Sun Jul 05 16:18:30 2020

#	Modifying user name:	Administrator
#	Modification time:	Sun Jul 05 16:19:33 2020

@<TRIPOS>MOLECULE
WHQ-2014-SQER-761-66
   54    57     1     0     0
SMALL
MULLIKEN_CHARGES
INVALID_CHARGES
Gaussian 16 #p B3LYP/6-31G* opt
@<TRIPOS>ATOM
      1 C          -3.348800    4.021167   -0.213604 C.3       1 <1>        -0.288700 
      2 N          -1.900354    4.063487   -0.113584 N.pl3     1 <1>        -0.647800 
      3 C          -1.134262    2.951303    0.082197 C.ar      1 <1>         0.510000 
      4 N          -1.810073    1.780130    0.070866 N.ar      1 <1>        -0.598700 
      5 C          -1.091004    0.679670    0.264005 C.ar      1 <1>         0.710800 
      6 N          -1.695724   -0.566078    0.262600 N.pl3     1 <1>        -0.781900 
      7 C          -3.014075   -0.974982    0.092217 C.ar      1 <1>         0.384900 
      8 C          -3.265133   -2.362094    0.160496 C.ar      1 <1>        -0.205100 
      9 C          -4.545260   -2.864546    0.001869 C.ar      1 <1>        -0.141400 
     10 C          -5.624241   -1.992841   -0.231819 C.ar      1 <1>         0.129800 
     11 C          -6.949809   -2.503987   -0.397491 C.1       1 <1>         0.224800 
     12 N          -8.028898   -2.920084   -0.532597 N.1       1 <1>        -0.488200 
     13 C          -5.375533   -0.611712   -0.299313 C.ar      1 <1>        -0.157500 
     14 C          -4.093721   -0.101711   -0.140903 C.ar      1 <1>        -0.162000 
     15 N           0.231645    0.614967    0.484112 N.ar      1 <1>        -0.587200 
     16 C           0.863665    1.782145    0.483544 C.ar      1 <1>         0.518500 
     17 O           2.214200    1.763087    0.713744 O.3       1 <1>        -0.573400 
     18 C           2.860514    0.555272    0.917986 C.ar      1 <1>         0.345300 
     19 C           3.185622   -0.250151   -0.197353 C.ar      1 <1>        -0.138600 
     20 C           3.921883   -1.394555   -0.025106 C.ar      1 <1>        -0.206900 
     21 C           4.372273   -1.787009    1.263691 C.ar      1 <1>         0.154000 
     22 C           5.138159   -2.967459    1.454149 C.ar      1 <1>        -0.198200 
     23 C           5.571596   -3.338513    2.706154 C.ar      1 <1>        -0.130300 
     24 C           5.254578   -2.537109    3.827569 C.ar      1 <1>        -0.133900 
     25 C           4.514664   -1.384808    3.681511 C.ar      1 <1>        -0.187200 
     26 C           4.051476   -0.974375    2.403526 C.ar      1 <1>         0.086200 
     27 C           3.280399    0.205159    2.182138 C.ar      1 <1>        -0.023200 
     28 BR          2.801497    1.341035    3.638328 Br        1 <1>        -0.102600 
     29 C           0.273127    3.031186    0.266868 C.ar      1 <1>         0.042600 
     30 C           1.051400    4.342764    0.267259 C.3       1 <1>        -0.150600 
     31 C           1.544113    4.724576    1.678646 C.3       1 <1>        -0.448600 
     32 C           2.197915    4.375052   -0.764711 C.3       1 <1>        -0.447200 
     33 H          -3.816656    3.621331    0.694950 H         1 <1>         0.168800 
     34 H          -3.708413    5.039782   -0.379533 H         1 <1>         0.152500 
     35 H          -3.658850    3.399214   -1.058241 H         1 <1>         0.180000 
     36 H          -1.475919    4.957627    0.067365 H         1 <1>         0.336500 
     37 H          -1.020832   -1.300241    0.435371 H         1 <1>         0.346900 
     38 H          -2.439523   -3.046657    0.340950 H         1 <1>         0.136000 
     39 H          -4.719780   -3.934301    0.057741 H         1 <1>         0.155600 
     40 H          -6.202482    0.068556   -0.478438 H         1 <1>         0.152300 
     41 H          -3.908448    0.960921   -0.191749 H         1 <1>         0.189100 
     42 H           2.840677    0.062382   -1.177094 H         1 <1>         0.149400 
     43 H           4.174102   -2.016008   -0.880279 H         1 <1>         0.140900 
     44 H           5.376351   -3.575154    0.584642 H         1 <1>         0.135400 
     45 H           6.156598   -4.244630    2.836426 H         1 <1>         0.136000 
     46 H           5.598353   -2.833093    4.814792 H         1 <1>         0.137400 
     47 H           4.274494   -0.774550    4.544660 H         1 <1>         0.156300 
     48 H           0.362820    5.135546   -0.053114 H         1 <1>         0.107500 
     49 H           2.218595    3.963526    2.080469 H         1 <1>         0.182900 
     50 H           2.079657    5.681358    1.652233 H         1 <1>         0.138400 
     51 H           0.702692    4.825307    2.374014 H         1 <1>         0.137100 
     52 H           2.994487    3.675942   -0.501614 H         1 <1>         0.171500 
     53 H           2.629742    5.381918   -0.809575 H         1 <1>         0.139000 
     54 H           1.831886    4.118916   -1.765352 H         1 <1>         0.142700 
@<TRIPOS>BOND
     1   20   43 1    
     2   19   42 1    
     3   32   54 1    
     4   22   44 1    
     5   19   20 ar   
     6   20   21 ar   
     7   18   19 ar   
     8   32   53 1    
     9   32   52 1    
    10   30   32 1    
    11   21   22 ar   
    12   22   23 ar   
    13   21   26 ar   
    14   17   18 1    
    15   18   27 ar   
    16   16   17 1    
    17   30   48 1    
    18   16   15 ar   
    19   29   16 ar   
    20   29   30 1    
    21   30   31 1    
    22    1   35 1    
    23    5   15 ar   
    24   23   45 1    
    25    3   29 ar   
    26    6   37 1    
    27   23   24 ar   
    28    5    6 1    
    29    4    5 ar   
    30    6    7 1    
    31    8   38 1    
    32    3    4 ar   
    33    2    3 1    
    34    7    8 ar   
    35    8    9 ar   
    36    7   14 ar   
    37    2   36 1    
    38    2    1 1    
    39   26   27 ar   
    40   26   25 ar   
    41    9   39 1    
    42    9   10 ar   
    43   14   41 1    
    44   14   13 ar   
    45   27   28 1    
    46    1   34 1    
    47    1   33 1    
    48   10   13 ar   
    49   10   11 1    
    50   13   40 1    
    51   11   12 3    
    52   31   50 1    
    53   31   49 1    
    54   31   51 1    
    55   24   25 ar   
    56   24   46 1    
    57   25   47 1    
@<TRIPOS>SUBSTRUCTURE
     1 ****       38 TEMP              0 ****  ****    0 ROOT 
