#	Name:			WHQ-2014-SQER-761-64
#	Creating user name:	Administrator
#	Creation time:		Sun Jul 05 16:18:30 2020

#	Modifying user name:	Administrator
#	Modification time:	Sun Jul 05 16:19:33 2020

@<TRIPOS>MOLECULE
WHQ-2014-SQER-761-64
   52    55     1     0     0
SMALL
MULLIKEN_CHARGES
INVALID_CHARGES
Gaussian 16 #p B3LYP/6-31G* opt
@<TRIPOS>ATOM
      1 C           1.118852    4.936322    1.735841 C.3       1 <1>        -0.444600 
      2 C           1.056796    4.310712    0.328882 C.3       1 <1>        -0.351600 
      3 C           0.271096    3.021369    0.278916 C.ar      1 <1>         0.040400 
      4 C          -1.130677    2.950501    0.078935 C.ar      1 <1>         0.527500 
      5 N          -1.869993    4.076010   -0.120073 N.pl3     1 <1>        -0.649300 
      6 C          -3.313312    4.071182   -0.280828 C.3       1 <1>        -0.289600 
      7 N          -1.809298    1.782441    0.062703 N.ar      1 <1>        -0.600000 
      8 C          -1.091648    0.679766    0.263925 C.ar      1 <1>         0.712700 
      9 N          -1.701088   -0.562077    0.265097 N.pl3     1 <1>        -0.781400 
     10 C          -3.021241   -0.966735    0.088015 C.ar      1 <1>         0.384300 
     11 C          -4.096262   -0.090556   -0.153647 C.ar      1 <1>        -0.161700 
     12 C          -5.378950   -0.597223   -0.318067 C.ar      1 <1>        -0.156800 
     13 C          -5.632053   -1.977283   -0.248083 C.ar      1 <1>         0.130500 
     14 C          -6.958523   -2.484390   -0.420069 C.1       1 <1>         0.225700 
     15 N          -8.038248   -2.896844   -0.560367 N.1       1 <1>        -0.486500 
     16 C          -4.557373   -2.851769   -0.005944 C.ar      1 <1>        -0.141100 
     17 C          -3.276555   -2.352493    0.158676 C.ar      1 <1>        -0.205200 
     18 N           0.233474    0.609441    0.485435 N.ar      1 <1>        -0.590700 
     19 C           0.861488    1.778249    0.488839 C.ar      1 <1>         0.524600 
     20 O           2.218228    1.776721    0.704085 O.3       1 <1>        -0.577300 
     21 C           2.847911    0.599087    1.052897 C.ar      1 <1>         0.352600 
     22 C           3.362615   -0.224736    0.026377 C.ar      1 <1>        -0.144800 
     23 C           4.084689   -1.347404    0.341480 C.ar      1 <1>        -0.199500 
     24 C           4.325854   -1.697409    1.697179 C.ar      1 <1>         0.152600 
     25 C           5.071404   -2.852798    2.033043 C.ar      1 <1>        -0.221200 
     26 C           5.304813   -3.189070    3.355690 C.ar      1 <1>         0.139300 
     27 C           6.060852   -4.363290    3.679220 C.1       1 <1>         0.236300 
     28 N           6.673443   -5.315119    3.948380 N.1       1 <1>        -0.474600 
     29 C           4.791788   -2.366204    4.397556 C.ar      1 <1>        -0.141400 
     30 C           4.066474   -1.239841    4.097053 C.ar      1 <1>        -0.192200 
     31 C           3.809098   -0.867432    2.749666 C.ar      1 <1>         0.099200 
     32 C           3.064393    0.288964    2.379452 C.ar      1 <1>        -0.017100 
     33 BR          2.338853    1.446826    3.707858 Br        1 <1>        -0.090400 
     34 H           1.589737    4.239024    2.435892 H         1 <1>         0.173400 
     35 H           1.702983    5.863721    1.727183 H         1 <1>         0.147100 
     36 H           0.117883    5.168592    2.118794 H         1 <1>         0.138000 
     37 H           0.638046    5.032673   -0.386491 H         1 <1>         0.130500 
     38 H           2.076390    4.114755   -0.016451 H         1 <1>         0.170500 
     39 H          -1.408348    4.963274   -0.006705 H         1 <1>         0.338400 
     40 H          -3.821735    3.671243    0.604737 H         1 <1>         0.172800 
     41 H          -3.642821    5.100063   -0.443725 H         1 <1>         0.154900 
     42 H          -3.607372    3.467517   -1.145226 H         1 <1>         0.179700 
     43 H          -1.030783   -1.299750    0.439762 H         1 <1>         0.346200 
     44 H          -3.907951    0.971362   -0.207010 H         1 <1>         0.188200 
     45 H          -6.202699    0.085023   -0.503911 H         1 <1>         0.153300 
     46 H          -4.735448   -3.920743    0.051732 H         1 <1>         0.157200 
     47 H          -2.454202   -3.039347    0.345494 H         1 <1>         0.136300 
     48 H           3.171873    0.059895   -1.002776 H         1 <1>         0.157500 
     49 H           4.482808   -1.983001   -0.444371 H         1 <1>         0.151800 
     50 H           5.462322   -3.479174    1.236951 H         1 <1>         0.163700 
     51 H           4.980589   -2.639556    5.430365 H         1 <1>         0.163400 
     52 H           3.677841   -0.617454    4.894612 H         1 <1>         0.168500 
@<TRIPOS>BOND
     1   23   49 1    
     2   22   48 1    
     3   23   22 ar   
     4   24   23 ar   
     5   22   21 ar   
     6   25   50 1    
     7    2   38 1    
     8    2   37 1    
     9   25   24 ar   
    10   26   25 ar   
    11   24   31 ar   
    12   21   20 1    
    13   20   19 1    
    14   21   32 ar   
    15    3    2 1    
    16    2    1 1    
    17   19    3 ar   
    18   19   18 ar   
    19    6   42 1    
    20    3    4 ar   
    21   18    8 ar   
    22    9   43 1    
    23    8    9 1    
    24    8    7 ar   
    25    4    7 ar   
    26    4    5 1    
    27    9   10 1    
    28    5   39 1    
    29    5    6 1    
    30   17   47 1    
    31   10   17 ar   
    32   10   11 ar   
    33   17   16 ar   
    34   27   28 3    
    35   27   26 1    
    36   26   29 ar   
    37    6   41 1    
    38    6   40 1    
    39   11   44 1    
    40   11   12 ar   
    41   32   31 ar   
    42   32   33 1    
    43   31   30 ar   
    44   16   46 1    
    45   16   13 ar   
    46   12   13 ar   
    47   12   45 1    
    48   13   14 1    
    49    1   35 1    
    50    1   34 1    
    51    1   36 1    
    52   14   15 3    
    53   29   30 ar   
    54   29   51 1    
    55   30   52 1    
@<TRIPOS>SUBSTRUCTURE
     1 ****       28 TEMP              0 ****  ****    0 ROOT 
