#	Name:			WHQ-2014-SQER-761-29
#	Creating user name:	Administrator
#	Creation time:		Sun Jul 05 16:18:25 2020

#	Modifying user name:	Administrator
#	Modification time:	Sun Jul 05 16:19:33 2020

@<TRIPOS>MOLECULE
WHQ-2014-SQER-761-29
   40    43     1     0     0
SMALL
MULLIKEN_CHARGES
INVALID_CHARGES
Gaussian 16 #p B3LYP/6-31G* opt
@<TRIPOS>ATOM
      1 N          -8.057760   -2.859155   -0.524490 N.1       1 <1>        -0.484200 
      2 C          -6.976363   -2.449585   -0.390127 C.1       1 <1>         0.227700 
      3 C          -5.646577   -1.947699   -0.224920 C.ar      1 <1>         0.131600 
      4 C          -5.386179   -0.570010   -0.307927 C.ar      1 <1>        -0.153400 
      5 C          -4.100021   -0.068956   -0.149973 C.ar      1 <1>        -0.159100 
      6 C          -3.032501   -0.951433    0.098158 C.ar      1 <1>         0.381800 
      7 N          -1.705132   -0.554465    0.270389 N.pl3     1 <1>        -0.767300 
      8 C          -1.097752    0.682475    0.262853 C.ar      1 <1>         0.699500 
      9 N          -1.815621    1.790993    0.060193 N.ar      1 <1>        -0.488100 
     10 C          -1.116631    2.938770    0.077430 C.ar      1 <1>         0.070000 
     11 C           0.248893    3.005302    0.286079 C.ar      1 <1>        -0.216100 
     12 C           0.882530    1.766579    0.485701 C.ar      1 <1>         0.571100 
     13 O           2.219109    1.791599    0.707858 O.3       1 <1>        -0.562000 
     14 C           2.938082    0.599053    0.819113 C.ar      1 <1>         0.357500 
     15 C           3.102208   -0.237251   -0.310021 C.ar      1 <1>        -0.138400 
     16 C           3.897489   -1.353714   -0.211938 C.ar      1 <1>        -0.206100 
     17 C           4.561027   -1.677632    1.003384 C.ar      1 <1>         0.145500 
     18 C           5.387668   -2.825816    1.123956 C.ar      1 <1>        -0.220800 
     19 C           6.011931   -3.096811    2.317690 C.ar      1 <1>         0.079000 
     20 BR          7.124207   -4.643845    2.479837 Br        1 <1>        -0.125600 
     21 C           5.855157   -2.255981    3.443738 C.ar      1 <1>        -0.152100 
     22 C           5.059071   -1.137881    3.345708 C.ar      1 <1>        -0.190100 
     23 C           4.391229   -0.815125    2.134392 C.ar      1 <1>         0.135400 
     24 C           3.562347    0.330907    2.010963 C.ar      1 <1>        -0.237600 
     25 N           0.236178    0.615158    0.477433 N.ar      1 <1>        -0.561100 
     26 C          -3.293634   -2.334263    0.181741 C.ar      1 <1>        -0.205900 
     27 C          -4.578044   -2.827313    0.023376 C.ar      1 <1>        -0.140500 
     28 H          -6.205496    0.115928   -0.499080 H         1 <1>         0.158600 
     29 H          -3.906524    0.991929   -0.214400 H         1 <1>         0.190400 
     30 H          -1.039240   -1.296993    0.442840 H         1 <1>         0.349200 
     31 H          -1.695038    3.845601   -0.087127 H         1 <1>         0.158000 
     32 H           0.803807    3.934537    0.297772 H         1 <1>         0.159100 
     33 H           2.601006    0.015409   -1.238021 H         1 <1>         0.148400 
     34 H           4.032213   -2.002895   -1.073053 H         1 <1>         0.144200 
     35 H           5.521481   -3.482662    0.270565 H         1 <1>         0.155500 
     36 H           6.362756   -2.500057    4.370335 H         1 <1>         0.157700 
     37 H           4.933816   -0.486313    4.206676 H         1 <1>         0.144800 
     38 H           3.423791    1.000409    2.854493 H         1 <1>         0.147000 
     39 H          -2.475183   -3.024153    0.373813 H         1 <1>         0.137700 
     40 H          -4.762900   -3.894560    0.090700 H         1 <1>         0.158500 
@<TRIPOS>BOND
     1   16   34 1    
     2   15   33 1    
     3   18   35 1    
     4   15   16 ar   
     5   16   17 ar   
     6   14   15 ar   
     7   17   18 ar   
     8   18   19 ar   
     9   17   23 ar   
    10   13   14 1    
    11   14   24 ar   
    12   12   13 1    
    13    7   30 1    
    14   19   20 1    
    15   26   39 1    
    16   25   12 ar   
    17    8   25 ar   
    18   12   11 ar   
    19    7    8 1    
    20    6    7 1    
    21   26    6 ar   
    22   26   27 ar   
    23    8    9 ar   
    24   27   40 1    
    25    6    5 ar   
    26   27    3 ar   
    27   11   32 1    
    28   11   10 ar   
    29    9   10 ar   
    30   10   31 1    
    31    5   29 1    
    32    5    4 ar   
    33    3    4 ar   
    34    3    2 1    
    35    4   28 1    
    36    2    1 3    
    37   19   21 ar   
    38   23   24 ar   
    39   23   22 ar   
    40   24   38 1    
    41   21   22 ar   
    42   21   36 1    
    43   22   37 1    
@<TRIPOS>SUBSTRUCTURE
     1 ****       39 TEMP              0 ****  ****    0 ROOT 
