#	Name:			WZY-2015-EJMC-1-4-7a
#	Creating user name:	Administrator
#	Creation time:		Sun Jul 05 16:18:59 2020

#	Modifying user name:	Administrator
#	Modification time:	Sun Jul 05 16:19:33 2020

@<TRIPOS>MOLECULE
WZY-2015-EJMC-1-4-7a
   62    65     1     0     0
SMALL
MULLIKEN_CHARGES
INVALID_CHARGES
Gaussian 16 #p B3LYP/6-31G* opt
@<TRIPOS>ATOM
      1 C           2.576722    2.967866    3.224566 C.3       1 <1>        -0.531200 
      2 C           3.249302    3.469650    1.971390 C.ar      1 <1>         0.172400 
      3 C           4.121187    4.558995    1.994258 C.ar      1 <1>        -0.228300 
      4 C           4.746525    5.000707    0.818578 C.ar      1 <1>         0.165400 
      5 C           5.639002    6.122173    0.860713 C.1       1 <1>         0.230600 
      6 N           6.361294    7.033736    0.894511 N.1       1 <1>        -0.479800 
      7 C           4.506360    4.342214   -0.396772 C.ar      1 <1>        -0.228300 
      8 C           3.640350    3.249506   -0.455950 C.ar      1 <1>         0.172200 
      9 C           3.377784    2.516667   -1.747762 C.3       1 <1>        -0.531100 
     10 C           3.020956    2.844379    0.736132 C.ar      1 <1>         0.200300 
     11 O           2.226111    1.704265    0.711444 O.3       1 <1>        -0.536400 
     12 C           0.879886    1.807750    0.485581 C.ar      1 <1>         0.532500 
     13 C           0.225648    3.031237    0.271346 C.ar      1 <1>        -0.230100 
     14 C          -1.147309    2.929798    0.069510 C.ar      1 <1>         0.058100 
     15 N          -1.823507    1.779610    0.069499 N.ar      1 <1>        -0.488500 
     16 C          -1.074246    0.674720    0.275607 C.ar      1 <1>         0.677100 
     17 N          -1.695266   -0.533467    0.253348 N.3       1 <1>        -0.649500 
     18 C          -3.135349   -0.734170    0.153367 C.3       1 <1>         0.060100 
     19 C          -3.852871   -0.582783    1.506359 C.3       1 <1>        -0.263100 
     20 C          -5.346036   -0.893614    1.370413 C.3       1 <1>        -0.128300 
     21 N          -5.549305   -2.236152    0.824165 N.3       1 <1>        -0.374300 
     22 C          -6.939580   -2.628190    0.845946 C.3       1 <1>        -0.216000 
     23 C          -7.145189   -4.143639    0.651566 C.2       1 <1>         0.614600 
     24 O          -6.239553   -4.958472    0.718585 O.2       1 <1>        -0.491400 
     25 N          -8.465211   -4.462789    0.418604 N.am      1 <1>        -0.722100 
     26 C          -9.065186   -5.731819    0.261552 C.ar      1 <1>         0.357200 
     27 C         -10.452894   -5.764686    0.051466 C.ar      1 <1>        -0.197800 
     28 C         -11.113888   -6.978796   -0.112129 C.ar      1 <1>        -0.133100 
     29 C         -10.401748   -8.178745   -0.068360 C.ar      1 <1>        -0.127300 
     30 C          -9.022598   -8.143068    0.140673 C.ar      1 <1>        -0.144200 
     31 C          -8.344282   -6.935133    0.305792 C.ar      1 <1>        -0.162400 
     32 C          -4.941279   -2.374152   -0.501292 C.3       1 <1>        -0.138200 
     33 C          -3.433324   -2.115202   -0.441481 C.3       1 <1>        -0.285300 
     34 N           0.260259    0.642498    0.491600 N.ar      1 <1>        -0.541700 
     35 H           1.490293    3.110207    3.178854 H         1 <1>         0.174800 
     36 H           2.751718    1.895700    3.362733 H         1 <1>         0.185700 
     37 H           2.950076    3.498219    4.104886 H         1 <1>         0.161300 
     38 H           4.322706    5.068635    2.931407 H         1 <1>         0.155400 
     39 H           5.004063    4.685002   -1.298496 H         1 <1>         0.155500 
     40 H           3.557561    1.442476   -1.634284 H         1 <1>         0.185900 
     41 H           2.335590    2.633261   -2.068205 H         1 <1>         0.175400 
     42 H           4.021247    2.895265   -2.546762 H         1 <1>         0.161300 
     43 H           0.740528    3.982637    0.268671 H         1 <1>         0.152300 
     44 H          -1.739076    3.828846   -0.098691 H         1 <1>         0.147600 
     45 H          -1.109307   -1.318149    0.505775 H         1 <1>         0.332900 
     46 H          -3.512451    0.039189   -0.524583 H         1 <1>         0.162200 
     47 H          -3.407244   -1.275737    2.231328 H         1 <1>         0.140700 
     48 H          -3.715634    0.436873    1.882396 H         1 <1>         0.152500 
     49 H          -5.828292   -0.118345    0.738075 H         1 <1>         0.112100 
     50 H          -5.825347   -0.843805    2.355409 H         1 <1>         0.140300 
     51 H          -7.355232   -2.371379    1.830082 H         1 <1>         0.170500 
     52 H          -7.556129   -2.082082    0.098303 H         1 <1>         0.121300 
     53 H          -9.107098   -3.682137    0.363636 H         1 <1>         0.329500 
     54 H         -11.015285   -4.833046    0.016840 H         1 <1>         0.119100 
     55 H         -12.188460   -6.983501   -0.273662 H         1 <1>         0.131000 
     56 H         -10.915367   -9.127294   -0.195534 H         1 <1>         0.128600 
     57 H          -8.455896   -9.069746    0.176839 H         1 <1>         0.134400 
     58 H          -7.275930   -6.909766    0.466295 H         1 <1>         0.185100 
     59 H          -5.119742   -3.390952   -0.857391 H         1 <1>         0.172200 
     60 H          -5.407903   -1.674443   -1.226953 H         1 <1>         0.105500 
     61 H          -2.972764   -2.893754    0.181983 H         1 <1>         0.148400 
     62 H          -3.003160   -2.194998   -1.446732 H         1 <1>         0.146400 
@<TRIPOS>BOND
     1    1   36 1    
     2    1   37 1    
     3    1   35 1    
     4    2    1 1    
     5   30   57 1    
     6    3   38 1    
     7   31   58 1    
     8   19   47 1    
     9    2    3 ar   
    10   10    2 ar   
    11   31   30 ar   
    12   30   29 ar   
    13    3    4 ar   
    14   23   24 2    
    15   17   45 1    
    16   26   31 ar   
    17   11   10 1    
    18   12   11 1    
    19   33   61 1    
    20   29   56 1    
    21   10    8 ar   
    22   29   28 ar   
    23   34   12 ar   
    24   16   34 ar   
    25   20   50 1    
    26   19   48 1    
    27   19   20 1    
    28   18   19 1    
    29   23   25 1    
    30   22   23 1    
    31   22   51 1    
    32    4    5 1    
    33    4    7 ar   
    34   17   16 1    
    35   18   17 1    
    36   12   13 ar   
    37   25   26 1    
    38   26   27 ar   
    39   20   21 1    
    40   21   22 1    
    41   21   32 1    
    42    5    6 3    
    43   20   49 1    
    44   16   15 ar   
    45   33   18 1    
    46   33   32 1    
    47   33   62 1    
    48   25   53 1    
    49   22   52 1    
    50    8    7 ar   
    51    8    9 1    
    52   18   46 1    
    53   28   27 ar   
    54   28   55 1    
    55    9   40 1    
    56    7   39 1    
    57   32   59 1    
    58   27   54 1    
    59   32   60 1    
    60   13   43 1    
    61   13   14 ar   
    62    9   42 1    
    63    9   41 1    
    64   15   14 ar   
    65   14   44 1    
@<TRIPOS>SUBSTRUCTURE
     1 ****       61 TEMP              0 ****  ****    0 ROOT 
