#	Name:			WZY-2015-EJMC-1-4-7v
#	Creating user name:	Administrator
#	Creation time:		Sun Jul 05 16:19:03 2020

#	Modifying user name:	Administrator
#	Modification time:	Sun Jul 05 16:19:33 2020

@<TRIPOS>MOLECULE
WZY-2015-EJMC-1-4-7v
   64    67     1     0     0
SMALL
MULLIKEN_CHARGES
INVALID_CHARGES
Gaussian 16 #p B3LYP/6-31G* opt
@<TRIPOS>ATOM
      1 C           3.370365    2.511340   -1.753934 C.3       1 <1>        -0.531600 
      2 C           3.637299    3.246106   -0.464103 C.ar      1 <1>         0.172800 
      3 C           4.504349    4.338318   -0.409640 C.ar      1 <1>        -0.228000 
      4 C           4.749268    4.998547    0.803711 C.ar      1 <1>         0.166000 
      5 C           5.642812    6.119573    0.840756 C.1       1 <1>         0.231300 
      6 N           6.365821    7.030495    0.870468 N.1       1 <1>        -0.478100 
      7 C           4.127875    4.559567    1.982404 C.ar      1 <1>        -0.228100 
      8 C           3.255126    3.470764    1.964547 C.ar      1 <1>         0.172600 
      9 C           2.587150    2.971506    3.221320 C.3       1 <1>        -0.531300 
     10 C           3.022084    2.844280    0.731113 C.ar      1 <1>         0.198000 
     11 O           2.225069    1.704019    0.711405 O.3       1 <1>        -0.535300 
     12 C           0.880890    1.807952    0.485612 C.ar      1 <1>         0.533800 
     13 C           0.225144    3.030816    0.270602 C.ar      1 <1>        -0.228100 
     14 C          -1.147241    2.930312    0.069443 C.ar      1 <1>         0.058300 
     15 N          -1.823338    1.778913    0.070275 N.ar      1 <1>        -0.490900 
     16 C          -1.073043    0.676350    0.275896 C.ar      1 <1>         0.677700 
     17 N          -1.695619   -0.534182    0.252554 N.3       1 <1>        -0.653600 
     18 C          -3.135383   -0.726075    0.155632 C.3       1 <1>         0.071800 
     19 C          -3.443263   -2.106743   -0.441341 C.3       1 <1>        -0.291700 
     20 C          -4.963816   -2.342983   -0.511635 C.3       1 <1>        -0.159100 
     21 N          -5.659422   -2.163813    0.775416 N.3       1 <1>        -0.412700 
     22 C          -5.488143   -3.291449    1.691025 C.3       1 <1>        -0.225000 
     23 C          -6.495764   -4.432282    1.459270 C.2       1 <1>         0.585200 
     24 O          -6.293066   -5.551691    1.908415 O.2       1 <1>        -0.503000 
     25 N          -7.608088   -4.031712    0.766306 N.am      1 <1>        -0.719600 
     26 C          -8.744376   -4.772467    0.411350 C.ar      1 <1>         0.366200 
     27 C          -8.917133   -6.126267    0.754530 C.ar      1 <1>        -0.144100 
     28 C         -10.076969   -6.796865    0.365770 C.ar      1 <1>        -0.154000 
     29 C         -11.079668   -6.156981   -0.359861 C.ar      1 <1>        -0.150800 
     30 C         -10.884904   -4.817195   -0.686676 C.ar      1 <1>         0.276300 
     31 N         -11.923444   -4.108462   -1.453329 N.pl3     1 <1>         0.377800 
     32 O         -12.929621   -4.740247   -1.772363 O.2       1 <1>        -0.391600 
     33 O         -11.724898   -2.925018   -1.730971 O.2       1 <1>        -0.399400 
     34 C          -9.743474   -4.114956   -0.318037 C.ar      1 <1>        -0.233500 
     35 C          -5.360795   -0.842018    1.350255 C.3       1 <1>        -0.159000 
     36 C          -3.857392   -0.556691    1.506784 C.3       1 <1>        -0.271500 
     37 N           0.259712    0.642232    0.492150 N.ar      1 <1>        -0.541100 
     38 H           4.013070    2.886843   -2.554825 H         1 <1>         0.162900 
     39 H           3.548123    1.436898   -1.638852 H         1 <1>         0.185700 
     40 H           2.327909    2.629866   -2.073076 H         1 <1>         0.174700 
     41 H           4.999347    4.679152   -1.313650 H         1 <1>         0.156900 
     42 H           4.333269    5.070552    2.917842 H         1 <1>         0.156700 
     43 H           2.963009    3.504687    4.098851 H         1 <1>         0.162800 
     44 H           2.764292    1.900011    3.362068 H         1 <1>         0.185400 
     45 H           1.500466    3.112578    3.179342 H         1 <1>         0.173800 
     46 H           0.740209    3.982166    0.267399 H         1 <1>         0.155400 
     47 H          -1.739151    3.828965   -0.098781 H         1 <1>         0.151000 
     48 H          -1.110200   -1.318126    0.508255 H         1 <1>         0.332100 
     49 H          -3.506479    0.048107   -0.525408 H         1 <1>         0.166200 
     50 H          -2.972510   -2.886758    0.175075 H         1 <1>         0.137100 
     51 H          -3.009224   -2.190960   -1.444829 H         1 <1>         0.156800 
     52 H          -5.403898   -1.634915   -1.226663 H         1 <1>         0.152100 
     53 H          -5.178343   -3.349140   -0.887766 H         1 <1>         0.156700 
     54 H          -5.648850   -2.943821    2.718797 H         1 <1>         0.180400 
     55 H          -4.491419   -3.754368    1.673859 H         1 <1>         0.166300 
     56 H          -7.555934   -3.056940    0.474216 H         1 <1>         0.357100 
     57 H          -8.142174   -6.627605    1.317970 H         1 <1>         0.198200 
     58 H         -10.197567   -7.841404    0.637208 H         1 <1>         0.151500 
     59 H         -11.985170   -6.663156   -0.668600 H         1 <1>         0.179400 
     60 H          -9.648276   -3.072857   -0.600522 H         1 <1>         0.176900 
     61 H          -5.877897   -0.756066    2.311871 H         1 <1>         0.150600 
     62 H          -5.802996   -0.088881    0.683377 H         1 <1>         0.151100 
     63 H          -3.704647    0.463394    1.876429 H         1 <1>         0.161800 
     64 H          -3.416630   -1.242005    2.244495 H         1 <1>         0.133500 
@<TRIPOS>BOND
     1    1   38 1    
     2    1   39 1    
     3    1   40 1    
     4    2    1 1    
     5   19   51 1    
     6    3   41 1    
     7   20   53 1    
     8   19   50 1    
     9   20   19 1    
    10   19   18 1    
    11    2    3 ar   
    12   10    2 ar   
    13   17   48 1    
    14    3    4 ar   
    15   28   58 1    
    16   20   52 1    
    17   21   20 1    
    18   11   10 1    
    19   12   11 1    
    20   18   17 1    
    21   17   16 1    
    22   37   12 ar   
    23   16   37 ar   
    24   27   28 ar   
    25   28   29 ar   
    26   27   57 1    
    27   29   59 1    
    28   26   27 ar   
    29   30   29 ar   
    30   10    8 ar   
    31   23   24 2    
    32   22   55 1    
    33   18   49 1    
    34   18   36 1    
    35   12   13 ar   
    36   16   15 ar   
    37   25   26 1    
    38   26   34 ar   
    39   23   25 1    
    40   22   23 1    
    41   34   30 ar   
    42   30   31 1    
    43   31   32 2    
    44    4    5 1    
    45    4    7 ar   
    46   25   56 1    
    47   34   60 1    
    48   31   33 2    
    49   22   21 1    
    50   22   54 1    
    51   21   35 1    
    52    5    6 3    
    53   15   14 ar   
    54   13   46 1    
    55   13   14 ar   
    56    8    7 ar   
    57    8    9 1    
    58   14   47 1    
    59    7   42 1    
    60   36   64 1    
    61   36   35 1    
    62   36   63 1    
    63    9   44 1    
    64   35   62 1    
    65   35   61 1    
    66    9   45 1    
    67    9   43 1    
@<TRIPOS>SUBSTRUCTURE
     1 ****       24 TEMP              0 ****  ****    0 ROOT 
