#	Name:			WZY-2015-EJMC-1-4-7z
#	Creating user name:	Administrator
#	Creation time:		Sun Jul 05 16:19:04 2020

#	Modifying user name:	Administrator
#	Modification time:	Sun Jul 05 16:19:33 2020

@<TRIPOS>MOLECULE
WZY-2015-EJMC-1-4-7z
   70    73     1     0     0
SMALL
MULLIKEN_CHARGES
INVALID_CHARGES
Gaussian 16 #p B3LYP/6-31G* opt
@<TRIPOS>ATOM
      1 C          -5.172047   -7.495613   -3.887943 C.3       1 <1>        -0.565800 
      2 C          -5.048210   -8.485547   -2.752232 C.ar      1 <1>         0.151100 
      3 C          -5.801195   -9.656849   -2.764710 C.ar      1 <1>        -0.210400 
      4 C          -5.695749  -10.584559   -1.727741 C.ar      1 <1>        -0.127400 
      5 S          -6.680208  -12.073439   -1.781601 S.o2      1 <1>         1.163600 
      6 N          -8.186801  -11.572370   -1.163807 N.3       1 <1>        -0.814500 
      7 O          -6.932304  -12.412044   -3.186195 O.2       1 <1>        -0.546000 
      8 O          -6.084472  -13.032115   -0.844491 O.2       1 <1>        -0.527900 
      9 C          -4.824481  -10.364664   -0.663947 C.ar      1 <1>        -0.164900 
     10 C          -4.062401   -9.200582   -0.627630 C.ar      1 <1>        -0.155500 
     11 C          -4.171038   -8.256915   -1.661540 C.ar      1 <1>         0.299700 
     12 N          -3.421355   -7.066156   -1.668877 N.am      1 <1>        -0.736800 
     13 C          -2.515747   -6.590238   -0.734679 C.2       1 <1>         0.627800 
     14 O          -2.225536   -7.166641    0.297734 O.2       1 <1>        -0.478400 
     15 C          -1.926787   -5.225953   -1.150618 C.3       1 <1>        -0.234300 
     16 N          -0.944811   -4.733045   -0.212305 N.3       1 <1>        -0.352900 
     17 C           0.011464   -3.775828   -0.774062 C.3       1 <1>        -0.157400 
     18 C          -0.551449   -2.351803   -0.948105 C.3       1 <1>        -0.269800 
     19 C          -1.110401   -1.832496    0.391239 C.3       1 <1>         0.073600 
     20 N          -1.726918   -0.517221    0.276290 N.3       1 <1>        -0.651800 
     21 C          -1.058829    0.666012    0.263960 C.ar      1 <1>         0.675000 
     22 N          -1.816311    1.768911    0.051522 N.ar      1 <1>        -0.489200 
     23 C          -1.152020    2.921698    0.072096 C.ar      1 <1>         0.060300 
     24 C           0.221380    3.031567    0.291648 C.ar      1 <1>        -0.230200 
     25 C           0.883176    1.813794    0.488723 C.ar      1 <1>         0.529700 
     26 O           2.229370    1.712342    0.710208 O.3       1 <1>        -0.536800 
     27 C           3.016550    2.857650    0.766075 C.ar      1 <1>         0.199900 
     28 C           3.641681    3.292131   -0.412399 C.ar      1 <1>         0.172200 
     29 C           3.393741    2.585655   -1.721646 C.3       1 <1>        -0.530900 
     30 C           4.499611    4.389155   -0.323436 C.ar      1 <1>        -0.228200 
     31 C           4.726060    5.023175    0.907385 C.ar      1 <1>         0.165800 
     32 C           5.610570    6.149432    0.979961 C.1       1 <1>         0.231000 
     33 N           6.326496    7.064738    1.038186 N.1       1 <1>        -0.478700 
     34 C           4.095058    4.552315    2.068524 C.ar      1 <1>        -0.228100 
     35 C           3.230998    3.457650    2.016144 C.ar      1 <1>         0.173100 
     36 C           2.553250    2.924874    3.253711 C.3       1 <1>        -0.531600 
     37 N           0.271725    0.639308    0.473489 N.ar      1 <1>        -0.540500 
     38 C          -2.113767   -2.837691    0.974431 C.3       1 <1>        -0.295500 
     39 C          -1.489300   -4.245872    1.059896 C.3       1 <1>        -0.161300 
     40 H          -5.891676   -7.850624   -4.629965 H         1 <1>         0.180800 
     41 H          -5.522048   -6.511876   -3.544626 H         1 <1>         0.163800 
     42 H          -4.218037   -7.344749   -4.412712 H         1 <1>         0.165800 
     43 H          -6.467378   -9.859019   -3.597415 H         1 <1>         0.167800 
     44 H          -8.915201  -11.962370   -1.759976 H         1 <1>         0.355700 
     45 H          -8.292753  -11.905671   -0.206995 H         1 <1>         0.351100 
     46 H          -4.730209  -11.105265    0.122740 H         1 <1>         0.179000 
     47 H          -3.378971   -9.013221    0.187874 H         1 <1>         0.198200 
     48 H          -3.564659   -6.472283   -2.473957 H         1 <1>         0.338500 
     49 H          -2.779714   -4.540930   -1.339014 H         1 <1>         0.135400 
     50 H          -1.433484   -5.362482   -2.122101 H         1 <1>         0.165800 
     51 H           0.872901   -3.737003   -0.092140 H         1 <1>         0.151300 
     52 H           0.383545   -4.165589   -1.728497 H         1 <1>         0.140500 
     53 H           0.232830   -1.674538   -1.304732 H         1 <1>         0.156800 
     54 H          -1.353185   -2.347999   -1.700660 H         1 <1>         0.122500 
     55 H          -0.271062   -1.723914    1.087983 H         1 <1>         0.165100 
     56 H          -2.707593   -0.449642    0.040045 H         1 <1>         0.329800 
     57 H          -1.747427    3.818108   -0.097428 H         1 <1>         0.150200 
     58 H           0.729062    3.986786    0.300645 H         1 <1>         0.153300 
     59 H           3.587458    1.511490   -1.631866 H         1 <1>         0.183700 
     60 H           2.351365    2.696383   -2.043715 H         1 <1>         0.174500 
     61 H           4.035471    2.990360   -2.508948 H         1 <1>         0.162100 
     62 H           5.001585    4.754627   -1.213956 H         1 <1>         0.156100 
     63 H           4.286054    5.043128    3.017746 H         1 <1>         0.156500 
     64 H           2.918815    3.437408    4.147772 H         1 <1>         0.162400 
     65 H           2.733055    1.850845    3.369433 H         1 <1>         0.185000 
     66 H           1.466477    3.063134    3.204760 H         1 <1>         0.175700 
     67 H          -2.439028   -2.512589    1.970330 H         1 <1>         0.151100 
     68 H          -3.013666   -2.863930    0.340326 H         1 <1>         0.123500 
     69 H          -0.661166   -4.224787    1.781499 H         1 <1>         0.148300 
     70 H          -2.210000   -4.975130    1.435119 H         1 <1>         0.171700 
@<TRIPOS>BOND
     1   29   61 1    
     2   29   59 1    
     3   30   62 1    
     4   29   60 1    
     5   28   29 1    
     6   17   52 1    
     7    1   42 1    
     8   15   50 1    
     9   28   30 ar   
    10   30   31 ar   
    11    1   40 1    
    12   27   28 ar   
    13   17   51 1    
    14   18   17 1    
    15   17   16 1    
    16    2    1 1    
    17    1   41 1    
    18   18   53 1    
    19   32   33 3    
    20   12   48 1    
    21    5    7 2    
    22   31   32 1    
    23    3   43 1    
    24    2    3 ar   
    25   11    2 ar   
    26   18   54 1    
    27   16   15 1    
    28   15   13 1    
    29   15   49 1    
    30   34   31 ar   
    31   19   18 1    
    32   12   11 1    
    33   13   12 1    
    34    3    4 ar   
    35   39   16 1    
    36   11   10 ar   
    37   13   14 2    
    38   26   27 1    
    39   27   35 ar   
    40    4    5 1    
    41    9    4 ar   
    42   25   26 1    
    43   10    9 ar   
    44   10   47 1    
    45    5    8 2    
    46    5    6 1    
    47    9   46 1    
    48   35   34 ar   
    49   34   63 1    
    50   37   25 ar   
    51   25   24 ar   
    52   21   37 ar   
    53   35   36 1    
    54   19   55 1    
    55   20   19 1    
    56   19   38 1    
    57   39   69 1    
    58   39   70 1    
    59   38   39 1    
    60   24   58 1    
    61   24   23 ar   
    62   21   20 1    
    63   21   22 ar   
    64   20   56 1    
    65    6   44 1    
    66   36   65 1    
    67    6   45 1    
    68   38   68 1    
    69   38   67 1    
    70   23   22 ar   
    71   23   57 1    
    72   36   64 1    
    73   36   66 1    
@<TRIPOS>SUBSTRUCTURE
     1 ****       33 TEMP              0 ****  ****    0 ROOT 
