#	Name:			WZY-2015-EJMC-1-4-7m
#	Creating user name:	Administrator
#	Creation time:		Sun Jul 05 16:19:01 2020

#	Modifying user name:	Administrator
#	Modification time:	Sun Jul 05 16:19:33 2020

@<TRIPOS>MOLECULE
WZY-2015-EJMC-1-4-7m
   62    65     1     0     0
SMALL
MULLIKEN_CHARGES
INVALID_CHARGES
Gaussian 16 #p B3LYP/6-31G* opt
@<TRIPOS>ATOM
      1 C           3.369979    2.529887   -1.748057 C.3       1 <1>        -0.531600 
      2 C           3.637093    3.252515   -0.451453 C.ar      1 <1>         0.172800 
      3 C           4.504674    4.343690   -0.386785 C.ar      1 <1>        -0.228000 
      4 C           4.749764    4.992602    0.832649 C.ar      1 <1>         0.166100 
      5 C           5.643880    6.112794    0.880148 C.1       1 <1>         0.231400 
      6 N           6.367239    7.023066    0.918277 N.1       1 <1>        -0.477800 
      7 C           4.128140    4.542925    2.007166 C.ar      1 <1>        -0.228100 
      8 C           3.254715    3.454763    1.979267 C.ar      1 <1>         0.172600 
      9 C           2.586548    2.944220    3.231279 C.3       1 <1>        -0.531400 
     10 C           3.021495    2.840022    0.739931 C.ar      1 <1>         0.197700 
     11 O           2.223635    1.700393    0.709483 O.3       1 <1>        -0.535000 
     12 C           0.879446    1.807319    0.486532 C.ar      1 <1>         0.534900 
     13 C           0.224966    3.032989    0.281584 C.ar      1 <1>        -0.228300 
     14 C          -1.145510    2.933851    0.072375 C.ar      1 <1>         0.055300 
     15 N          -1.822504    1.782159    0.057858 N.ar      1 <1>        -0.486400 
     16 C          -1.077335    0.676087    0.266939 C.ar      1 <1>         0.677000 
     17 N          -1.688088   -0.539780    0.269182 N.3       1 <1>        -0.651300 
     18 C          -3.104596   -0.835995    0.056323 C.3       1 <1>         0.072100 
     19 C          -3.621195   -0.428345   -1.333683 C.3       1 <1>        -0.309000 
     20 C          -5.046172   -0.973391   -1.566894 C.3       1 <1>        -0.123500 
     21 N          -5.783917   -1.154720   -0.298737 N.3       1 <1>        -0.442200 
     22 C          -7.208689   -1.361358   -0.531465 C.3       1 <1>        -0.210900 
     23 C          -7.567456   -2.793220   -0.965433 C.2       1 <1>         0.583000 
     24 O          -8.599320   -3.030273   -1.577756 O.2       1 <1>        -0.504400 
     25 N          -6.654559   -3.721381   -0.537672 N.am      1 <1>        -0.715100 
     26 C          -6.665407   -5.117804   -0.692860 C.ar      1 <1>         0.361300 
     27 C          -5.587101   -5.842393   -0.160905 C.ar      1 <1>        -0.189400 
     28 C          -5.530713   -7.227746   -0.276608 C.ar      1 <1>        -0.135500 
     29 C          -6.562066   -7.899215   -0.931018 C.ar      1 <1>        -0.064200 
     30 CL         -6.499116   -9.652009   -1.083026 Cl        1 <1>        -0.031500 
     31 C          -7.640099   -7.195531   -1.464180 C.ar      1 <1>        -0.146500 
     32 C          -7.697925   -5.807677   -1.348359 C.ar      1 <1>        -0.157800 
     33 C          -5.466319   -0.086921    0.659598 C.3       1 <1>        -0.135000 
     34 C          -4.017167   -0.243207    1.159746 C.3       1 <1>        -0.269100 
     35 N           0.256965    0.643391    0.483983 N.ar      1 <1>        -0.544800 
     36 H           2.327728    2.652039   -2.066503 H         1 <1>         0.174300 
     37 H           4.013085    2.912470   -2.545325 H         1 <1>         0.163200 
     38 H           3.547293    1.454307   -1.643006 H         1 <1>         0.185700 
     39 H           4.999964    4.692619   -1.287535 H         1 <1>         0.157000 
     40 H           4.333821    5.045022    2.947395 H         1 <1>         0.156900 
     41 H           2.964211    3.467693    4.113883 H         1 <1>         0.163000 
     42 H           2.761299    1.870959    3.361096 H         1 <1>         0.185600 
     43 H           1.500102    3.088301    3.191794 H         1 <1>         0.174000 
     44 H           0.740780    3.983963    0.285044 H         1 <1>         0.156000 
     45 H          -1.736528    3.833313   -0.094558 H         1 <1>         0.150900 
     46 H          -1.053048   -1.309652    0.422267 H         1 <1>         0.338500 
     47 H          -3.162230   -1.928109    0.119532 H         1 <1>         0.134000 
     48 H          -2.948920   -0.807707   -2.110762 H         1 <1>         0.146900 
     49 H          -3.606469    0.662408   -1.401832 H         1 <1>         0.181200 
     50 H          -5.593785   -0.286547   -2.237099 H         1 <1>         0.133900 
     51 H          -5.009220   -1.945049   -2.074567 H         1 <1>         0.149700 
     52 H          -7.635137   -0.683904   -1.288848 H         1 <1>         0.160300 
     53 H          -7.751812   -1.176971    0.403940 H         1 <1>         0.173500 
     54 H          -5.859984   -3.299797   -0.062023 H         1 <1>         0.346500 
     55 H          -4.783948   -5.317073    0.351317 H         1 <1>         0.127800 
     56 H          -4.694394   -7.780390    0.137945 H         1 <1>         0.153400 
     57 H          -8.437590   -7.728692   -1.971005 H         1 <1>         0.157900 
     58 H          -8.530268   -5.252495   -1.758530 H         1 <1>         0.193600 
     59 H          -6.162321   -0.157101    1.501481 H         1 <1>         0.146000 
     60 H          -5.612579    0.911489    0.210040 H         1 <1>         0.135500 
     61 H          -3.986098   -0.898114    2.038105 H         1 <1>         0.135700 
     62 H          -3.634002    0.735327    1.458034 H         1 <1>         0.171300 
@<TRIPOS>BOND
     1    1   37 1    
     2    1   36 1    
     3    1   38 1    
     4    2    1 1    
     5    3   39 1    
     6   19   48 1    
     7   20   50 1    
     8   20   51 1    
     9    2    3 ar   
    10    3    4 ar   
    11   19   49 1    
    12   10    2 ar   
    13   19   20 1    
    14   20   21 1    
    15   18   19 1    
    16   31   57 1    
    17   32   58 1    
    18   23   24 2    
    19   22   52 1    
    20   32   31 ar   
    21   31   29 ar   
    22   26   32 ar   
    23   14   45 1    
    24    5    6 3    
    25    4    5 1    
    26   13   44 1    
    27   22   23 1    
    28   23   25 1    
    29   14   13 ar   
    30   15   14 ar   
    31    4    7 ar   
    32   12   13 ar   
    33   16   15 ar   
    34   29   30 1    
    35   29   28 ar   
    36   11   10 1    
    37   10    8 ar   
    38   21   22 1    
    39   22   53 1    
    40   12   11 1    
    41   35   12 ar   
    42   25   26 1    
    43   26   27 ar   
    44   16   35 ar   
    45   17   16 1    
    46   21   33 1    
    47   25   54 1    
    48   18   17 1    
    49   18   47 1    
    50   18   34 1    
    51   17   46 1    
    52   33   60 1    
    53   28   27 ar   
    54   28   56 1    
    55   27   55 1    
    56   33   34 1    
    57   33   59 1    
    58    7    8 ar   
    59    7   40 1    
    60    8    9 1    
    61   34   62 1    
    62   34   61 1    
    63    9   43 1    
    64    9   42 1    
    65    9   41 1    
@<TRIPOS>SUBSTRUCTURE
     1 ****       57 TEMP              0 ****  ****    0 ROOT 
