#	Name:			WZY-2015-EJMC-1-4-7q
#	Creating user name:	Administrator
#	Creation time:		Sun Jul 05 16:19:02 2020

#	Modifying user name:	Administrator
#	Modification time:	Sun Jul 05 16:19:33 2020

@<TRIPOS>MOLECULE
WZY-2015-EJMC-1-4-7q
   62    65     1     0     0
SMALL
MULLIKEN_CHARGES
INVALID_CHARGES
Gaussian 16 #p B3LYP/6-31G* opt
@<TRIPOS>ATOM
      1 C           3.277563    0.527598   -1.605334 C.3       1 <1>        -0.533600 
      2 C           3.494102   -0.022469   -0.218456 C.ar      1 <1>         0.176400 
      3 C           4.268523   -1.161609    0.003434 C.ar      1 <1>        -0.230800 
      4 C           4.455378   -1.657968    1.302178 C.ar      1 <1>         0.165700 
      5 C           5.253509   -2.830307    1.512445 C.1       1 <1>         0.228600 
      6 N           5.898802   -3.783555    1.682424 N.1       1 <1>        -0.482000 
      7 C           3.866111   -1.006141    2.395672 C.ar      1 <1>        -0.230700 
      8 C           3.085876    0.135300    2.208600 C.ar      1 <1>         0.178500 
      9 C           2.440833    0.849787    3.368720 C.3       1 <1>        -0.535000 
     10 C           2.915893    0.596747    0.897036 C.ar      1 <1>         0.245600 
     11 O           2.226547    1.796325    0.700846 O.3       1 <1>        -0.569400 
     12 C           0.881162    1.772266    0.490653 C.ar      1 <1>         0.568200 
     13 C           0.244277    3.007767    0.298722 C.ar      1 <1>        -0.219800 
     14 C          -1.122375    2.929234    0.078415 C.ar      1 <1>         0.060000 
     15 N          -1.811725    1.780541    0.047348 N.ar      1 <1>        -0.494400 
     16 C          -1.086255    0.667956    0.259038 C.ar      1 <1>         0.677300 
     17 N          -1.731612   -0.529852    0.277052 N.3       1 <1>        -0.656800 
     18 C          -3.142661   -0.715307   -0.030539 C.3       1 <1>         0.078400 
     19 C          -3.668774   -1.995191    0.656701 C.3       1 <1>        -0.301400 
     20 C          -4.868046   -2.590631   -0.122421 C.3       1 <1>        -0.153200 
     21 N          -5.711913   -1.588829   -0.778564 N.3       1 <1>        -0.421200 
     22 C          -6.508135   -0.767993    0.129227 C.3       1 <1>        -0.234200 
     23 C          -7.873602   -0.351644   -0.441752 C.2       1 <1>         0.586000 
     24 O          -8.555241    0.508848    0.082883 O.2       1 <1>        -0.488600 
     25 N          -8.236377   -1.077545   -1.558375 N.am      1 <1>        -0.706800 
     26 C          -9.501676   -1.023140   -2.162803 C.ar      1 <1>         0.333000 
     27 C         -10.328442   -2.161079   -2.211656 C.ar      1 <1>        -0.091200 
     28 CL         -9.763828   -3.661309   -1.496281 Cl        1 <1>         0.005400 
     29 C         -11.584992   -2.151867   -2.808898 C.ar      1 <1>        -0.148400 
     30 C         -12.043697   -0.961334   -3.366152 C.ar      1 <1>        -0.051300 
     31 CL        -13.631637   -0.917055   -4.106898 Cl        1 <1>         0.002200 
     32 C         -11.261409    0.189207   -3.358266 C.ar      1 <1>        -0.150000 
     33 C          -9.995208    0.144351   -2.776544 C.ar      1 <1>        -0.062900 
     34 CL         -8.999276    1.572989   -2.890106 Cl        1 <1>         0.027500 
     35 C          -4.959203   -0.818800   -1.800688 C.3       1 <1>        -0.141200 
     36 C          -3.435258   -0.763312   -1.540315 C.3       1 <1>        -0.292000 
     37 N           0.251555    0.612174    0.475860 N.ar      1 <1>        -0.561800 
     38 H           3.876367   -0.019127   -2.339017 H         1 <1>         0.160800 
     39 H           3.547555    1.587754   -1.659387 H         1 <1>         0.176600 
     40 H           2.224085    0.447344   -1.898992 H         1 <1>         0.176700 
     41 H           4.733594   -1.669441   -0.835803 H         1 <1>         0.152800 
     42 H           4.021442   -1.394542    3.397442 H         1 <1>         0.153200 
     43 H           2.689947    1.916364    3.367176 H         1 <1>         0.176100 
     44 H           1.348274    0.772560    3.317052 H         1 <1>         0.179400 
     45 H           2.766354    0.420330    4.320191 H         1 <1>         0.161000 
     46 H           0.791659    3.941151    0.317092 H         1 <1>         0.150500 
     47 H          -1.704275    3.834419   -0.087482 H         1 <1>         0.151900 
     48 H          -1.130780   -1.339810    0.346953 H         1 <1>         0.330600 
     49 H          -3.657231    0.159226    0.378717 H         1 <1>         0.174400 
     50 H          -3.941768   -1.770680    1.693915 H         1 <1>         0.156300 
     51 H          -2.872906   -2.752193    0.702780 H         1 <1>         0.133600 
     52 H          -4.498852   -3.263805   -0.905530 H         1 <1>         0.150300 
     53 H          -5.492696   -3.200318    0.538760 H         1 <1>         0.153400 
     54 H          -6.727255   -1.348424    1.033833 H         1 <1>         0.177900 
     55 H          -6.016163    0.158184    0.463347 H         1 <1>         0.171500 
     56 H          -7.621489   -1.866465   -1.747176 H         1 <1>         0.362600 
     57 H         -12.192952   -3.047832   -2.824427 H         1 <1>         0.182700 
     58 H         -11.616499    1.104897   -3.814595 H         1 <1>         0.183500 
     59 H          -5.143429   -1.252616   -2.792254 H         1 <1>         0.145900 
     60 H          -5.367506    0.196776   -1.824483 H         1 <1>         0.164100 
     61 H          -2.936388   -1.639421   -1.976440 H         1 <1>         0.132500 
     62 H          -3.012282    0.121374   -2.026375 H         1 <1>         0.165600 
@<TRIPOS>BOND
     1    9   45 1    
     2    9   44 1    
     3    9   43 1    
     4    8    9 1    
     5   22   54 1    
     6   19   50 1    
     7   23   24 2    
     8   22   55 1    
     9    7   42 1    
    10   23   22 1    
    11   22   21 1    
    12   25   23 1    
    13   20   53 1    
    14   18   49 1    
    15    8    7 ar   
    16   10    8 ar   
    17   19   51 1    
    18   20   19 1    
    19   19   18 1    
    20    7    4 ar   
    21   14   47 1    
    22   21   20 1    
    23   20   52 1    
    24   15   14 ar   
    25   14   13 ar   
    26   16   15 ar   
    27   18   17 1    
    28   18   36 1    
    29   13   46 1    
    30   17   16 1    
    31   17   48 1    
    32   12   13 ar   
    33   16   37 ar   
    34   27   28 1    
    35   21   35 1    
    36   26   25 1    
    37   25   56 1    
    38   37   12 ar   
    39   12   11 1    
    40   11   10 1    
    41   27   26 ar   
    42   27   29 ar   
    43   26   33 ar   
    44   10    2 ar   
    45   29   57 1    
    46   29   30 ar   
    47   33   34 1    
    48   33   32 ar   
    49    4    5 1    
    50    4    3 ar   
    51   30   32 ar   
    52   30   31 1    
    53   32   58 1    
    54    5    6 3    
    55   35   60 1    
    56   35   36 1    
    57   35   59 1    
    58   36   62 1    
    59   36   61 1    
    60    2    3 ar   
    61    2    1 1    
    62    3   41 1    
    63    1   39 1    
    64    1   40 1    
    65    1   38 1    
@<TRIPOS>SUBSTRUCTURE
     1 ****       28 TEMP              0 ****  ****    0 ROOT 
