#	Name:			WZY-2015-EJMC-1-4-7e
#	Creating user name:	Administrator
#	Creation time:		Sun Jul 05 16:19:00 2020

#	Modifying user name:	Administrator
#	Modification time:	Sun Jul 05 16:19:33 2020

@<TRIPOS>MOLECULE
WZY-2015-EJMC-1-4-7e
   68    71     1     0     0
SMALL
MULLIKEN_CHARGES
INVALID_CHARGES
Gaussian 16 #p B3LYP/6-31G* opt
@<TRIPOS>ATOM
      1 C         -11.502043   -5.441721   -0.639124 C.3       1 <1>        -0.531900 
      2 C         -11.207323   -3.981150   -0.383370 C.ar      1 <1>         0.187300 
      3 C         -12.219936   -3.117347    0.059696 C.ar      1 <1>        -0.236500 
      4 C         -11.967929   -1.763660    0.290617 C.ar      1 <1>         0.169600 
      5 C         -13.064979   -0.841072    0.772213 C.3       1 <1>        -0.527400 
      6 C         -10.679719   -1.253134    0.077234 C.ar      1 <1>        -0.226300 
      7 C          -9.659339   -2.102448   -0.362105 C.ar      1 <1>         0.371700 
      8 N          -8.341815   -1.662348   -0.595634 N.am      1 <1>        -0.717900 
      9 C          -7.801269   -0.415677   -0.452649 C.2       1 <1>         0.583900 
     10 O          -8.388052    0.591931   -0.078767 O.2       1 <1>        -0.509400 
     11 C          -6.320536   -0.347459   -0.874041 C.3       1 <1>        -0.231000 
     12 N          -5.642481   -1.643107   -0.864309 N.3       1 <1>        -0.419100 
     13 C          -5.191160   -2.082315    0.476883 C.3       1 <1>        -0.138100 
     14 C          -3.664633   -1.949105    0.705706 C.3       1 <1>        -0.308100 
     15 C          -3.098782   -0.746562   -0.059455 C.3       1 <1>         0.069100 
     16 N          -1.700210   -0.532284    0.283063 N.3       1 <1>        -0.651100 
     17 C          -1.071021    0.674939    0.260148 C.ar      1 <1>         0.676700 
     18 N          -1.818911    1.777347    0.046031 N.ar      1 <1>        -0.489200 
     19 C          -1.148171    2.930773    0.074091 C.ar      1 <1>         0.059500 
     20 C           0.221756    3.032908    0.293844 C.ar      1 <1>        -0.229300 
     21 C           0.879914    1.808342    0.488091 C.ar      1 <1>         0.533500 
     22 O           2.225795    1.703582    0.707902 O.3       1 <1>        -0.536200 
     23 C           3.018995    2.845226    0.752547 C.ar      1 <1>         0.199000 
     24 C           3.636747    3.272067   -0.432571 C.ar      1 <1>         0.172600 
     25 C           3.374241    2.562428   -1.737250 C.3       1 <1>        -0.531200 
     26 C           4.501377    4.364703   -0.354455 C.ar      1 <1>        -0.228200 
     27 C           4.741426    5.001605    0.872208 C.ar      1 <1>         0.165800 
     28 C           5.633354    6.122839    0.933762 C.1       1 <1>         0.231100 
     29 N           6.355535    7.033595    0.983074 N.1       1 <1>        -0.478800 
     30 C           4.117155    4.538633    2.040136 C.ar      1 <1>        -0.228100 
     31 C           3.246704    3.448567    1.998695 C.ar      1 <1>         0.172600 
     32 C           2.575487    2.924080    3.243290 C.3       1 <1>        -0.531500 
     33 N           0.262423    0.640802    0.474765 N.ar      1 <1>        -0.542200 
     34 C          -3.323312   -0.933688   -1.583534 C.3       1 <1>        -0.285100 
     35 C          -4.582021   -1.791282   -1.865961 C.3       1 <1>        -0.154500 
     36 C          -9.931250   -3.462593   -0.589128 C.ar      1 <1>        -0.263300 
     37 H         -10.592175   -5.998520   -0.885570 H         1 <1>         0.150200 
     38 H         -11.958741   -5.916724    0.237548 H         1 <1>         0.160700 
     39 H         -12.204188   -5.566906   -1.473322 H         1 <1>         0.163100 
     40 H         -13.220917   -3.510820    0.226030 H         1 <1>         0.109500 
     41 H         -14.022463   -1.365184    0.853804 H         1 <1>         0.149900 
     42 H         -12.827471   -0.420861    1.757430 H         1 <1>         0.164100 
     43 H         -13.201524    0.005936    0.088830 H         1 <1>         0.163900 
     44 H         -10.460162   -0.207368    0.249013 H         1 <1>         0.174800 
     45 H          -7.662577   -2.350740   -0.911147 H         1 <1>         0.349400 
     46 H          -5.855259    0.420004   -0.238158 H         1 <1>         0.168300 
     47 H          -6.308241    0.045993   -1.898201 H         1 <1>         0.174100 
     48 H          -5.487763   -3.127482    0.637290 H         1 <1>         0.145200 
     49 H          -5.728498   -1.487823    1.222960 H         1 <1>         0.161000 
     50 H          -3.152621   -2.863011    0.370889 H         1 <1>         0.133900 
     51 H          -3.459666   -1.848844    1.777094 H         1 <1>         0.158900 
     52 H          -3.621958    0.156759    0.264702 H         1 <1>         0.180100 
     53 H          -1.080819   -1.330459    0.334721 H         1 <1>         0.329400 
     54 H          -1.740731    3.829286   -0.093165 H         1 <1>         0.152100 
     55 H           0.734539    3.985381    0.305638 H         1 <1>         0.154400 
     56 H           3.555783    1.486549   -1.643517 H         1 <1>         0.184700 
     57 H           4.016461    2.956255   -2.529703 H         1 <1>         0.162100 
     58 H           2.331639    2.683631   -2.054870 H         1 <1>         0.174600 
     59 H           4.998145    4.724174   -1.250296 H         1 <1>         0.156100 
     60 H           4.318364    5.031905    2.986043 H         1 <1>         0.156400 
     61 H           1.489081    3.067011    3.201778 H         1 <1>         0.175700 
     62 H           2.949764    3.438559    4.132551 H         1 <1>         0.162300 
     63 H           2.751104    1.849631    3.362097 H         1 <1>         0.185300 
     64 H          -3.397174    0.051807   -2.055911 H         1 <1>         0.160200 
     65 H          -2.446079   -1.427880   -2.021085 H         1 <1>         0.135800 
     66 H          -4.997239   -1.561493   -2.853066 H         1 <1>         0.150700 
     67 H          -4.306990   -2.853486   -1.886650 H         1 <1>         0.144400 
     68 H          -9.132098   -4.117684   -0.932431 H         1 <1>         0.110500 
@<TRIPOS>BOND
     1   25   57 1    
     2   25   58 1    
     3   35   66 1    
     4   11   47 1    
     5   26   59 1    
     6   34   64 1    
     7   25   56 1    
     8   24   25 1    
     9   19   54 1    
    10   34   65 1    
    11   34   35 1    
    12   35   67 1    
    13   35   12 1    
    14   24   26 ar   
    15   26   27 ar   
    16   15   34 1    
    17   11    9 1    
    18   11   46 1    
    19   12   11 1    
    20    5   43 1    
    21   23   24 ar   
    22    9   10 2    
    23   20   19 ar   
    24   19   18 ar   
    25   20   55 1    
    26    9    8 1    
    27   28   29 3    
    28   21   20 ar   
    29   27   28 1    
    30    8   45 1    
    31    8    7 1    
    32   17   18 ar   
    33    6   44 1    
    34   12   13 1    
    35    7    6 ar   
    36    6    4 ar   
    37    1   39 1    
    38    7   36 ar   
    39   27   30 ar   
    40    4    5 1    
    41    5   41 1    
    42    5   42 1    
    43    4    3 ar   
    44   36   68 1    
    45   36    2 ar   
    46   15   52 1    
    47   21   33 ar   
    48   22   21 1    
    49   33   17 ar   
    50   17   16 1    
    51   16   15 1    
    52   15   14 1    
    53    2    3 ar   
    54    3   40 1    
    55    2    1 1    
    56   23   22 1    
    57   23   31 ar   
    58    1   37 1    
    59    1   38 1    
    60   16   53 1    
    61   30   31 ar   
    62   30   60 1    
    63   13   14 1    
    64   13   49 1    
    65   13   48 1    
    66   31   32 1    
    67   14   50 1    
    68   14   51 1    
    69   32   61 1    
    70   32   63 1    
    71   32   62 1    
@<TRIPOS>SUBSTRUCTURE
     1 ****       29 TEMP              0 ****  ****    0 ROOT 
