#	Name:			WZY-2015-EJMC-1-4-7x
#	Creating user name:	Administrator
#	Creation time:		Sun Jul 05 16:19:03 2020

#	Modifying user name:	Administrator
#	Modification time:	Sun Jul 05 16:19:33 2020

@<TRIPOS>MOLECULE
WZY-2015-EJMC-1-4-7x
   63    66     1     0     0
SMALL
MULLIKEN_CHARGES
INVALID_CHARGES
Gaussian 16 #p B3LYP/6-31G* opt
@<TRIPOS>ATOM
      1 C           2.575098    2.946505    3.238507 C.3       1 <1>        -0.531400 
      2 C           3.244406    3.469351    1.992163 C.ar      1 <1>         0.172600 
      3 C           4.110039    4.563289    2.029586 C.ar      1 <1>        -0.228300 
      4 C           4.732902    5.024128    0.859966 C.ar      1 <1>         0.165400 
      5 C           5.619161    6.149922    0.917222 C.1       1 <1>         0.230500 
      6 N           6.336629    7.064691    0.963314 N.1       1 <1>        -0.480200 
      7 C           4.496371    4.380658   -0.364109 C.ar      1 <1>        -0.228300 
      8 C           3.636586    3.283966   -0.437895 C.ar      1 <1>         0.172300 
      9 C           3.378126    2.566713   -1.739219 C.3       1 <1>        -0.531300 
     10 C           3.019606    2.859466    0.748636 C.ar      1 <1>         0.201700 
     11 O           2.231088    1.715382    0.708569 O.3       1 <1>        -0.536300 
     12 C           0.884160    1.815939    0.487217 C.ar      1 <1>         0.526600 
     13 C           0.222494    3.032214    0.285154 C.ar      1 <1>        -0.231900 
     14 C          -1.152169    2.919315    0.072123 C.ar      1 <1>         0.060900 
     15 N          -1.814385    1.766599    0.057136 N.ar      1 <1>        -0.492500 
     16 C          -1.057145    0.660823    0.270416 C.ar      1 <1>         0.672200 
     17 N          -1.735701   -0.515060    0.263233 N.3       1 <1>        -0.650000 
     18 C          -1.207413   -1.869872    0.439056 C.3       1 <1>         0.074000 
     19 C          -0.243397   -2.297423   -0.696697 C.3       1 <1>        -0.268300 
     20 C           0.667872   -3.454878   -0.235486 C.3       1 <1>        -0.133500 
     21 N          -0.057421   -4.287986    0.729573 N.3       1 <1>        -0.391600 
     22 C           0.354507   -5.661232    0.848539 C.3       1 <1>        -0.245600 
     23 C           1.730944   -5.910700    1.513418 C.2       1 <1>         0.606000 
     24 O           2.576378   -5.031257    1.621487 O.2       1 <1>        -0.504600 
     25 N           1.905255   -7.208275    1.931973 N.am      1 <1>        -0.718400 
     26 C           3.045747   -7.819245    2.506491 C.ar      1 <1>         0.352100 
     27 C           4.232913   -7.127989    2.783348 C.ar      1 <1>        -0.166900 
     28 C           5.311982   -7.805298    3.350959 C.ar      1 <1>        -0.209900 
     29 C           5.229493   -9.166972    3.651395 C.ar      1 <1>         0.355900 
     30 O           6.261675   -9.873671    4.209627 O.3       1 <1>        -0.647100 
     31 C           4.045633   -9.858682    3.377396 C.ar      1 <1>        -0.163300 
     32 C           2.969003   -9.187353    2.810968 C.ar      1 <1>        -0.201600 
     33 C          -0.298321   -3.618711    2.014348 C.3       1 <1>        -0.111800 
     34 C          -0.550347   -2.111115    1.808524 C.3       1 <1>        -0.312500 
     35 N           0.273232    0.641198    0.484086 N.ar      1 <1>        -0.532100 
     36 H           2.757709    1.873846    3.362351 H         1 <1>         0.186300 
     37 H           2.944898    3.467698    4.125763 H         1 <1>         0.161000 
     38 H           1.487827    3.082058    3.194264 H         1 <1>         0.175300 
     39 H           4.308684    5.061361    2.973498 H         1 <1>         0.155200 
     40 H           4.992134    4.738339   -1.261226 H         1 <1>         0.155200 
     41 H           2.334179    2.678140   -2.055510 H         1 <1>         0.175200 
     42 H           3.568424    1.492753   -1.640651 H         1 <1>         0.185700 
     43 H           4.016379    2.962097   -2.534168 H         1 <1>         0.161000 
     44 H           0.728904    3.988181    0.290930 H         1 <1>         0.151800 
     45 H          -1.749686    3.814571   -0.096574 H         1 <1>         0.148600 
     46 H          -2.723394   -0.402793    0.086259 H         1 <1>         0.335600 
     47 H          -2.092823   -2.512233    0.387944 H         1 <1>         0.140300 
     48 H          -0.835591   -2.593955   -1.570442 H         1 <1>         0.128500 
     49 H           0.377073   -1.445264   -0.986434 H         1 <1>         0.161400 
     50 H           0.940997   -4.082058   -1.091475 H         1 <1>         0.130500 
     51 H           1.608749   -3.068220    0.180397 H         1 <1>         0.163700 
     52 H          -0.416928   -6.214008    1.407733 H         1 <1>         0.143400 
     53 H           0.390385   -6.108357   -0.155749 H         1 <1>         0.167700 
     54 H           1.117180   -7.828441    1.796189 H         1 <1>         0.328800 
     55 H           4.301091   -6.073899    2.554032 H         1 <1>         0.187700 
     56 H           6.229304   -7.257879    3.561488 H         1 <1>         0.123600 
     57 H           7.013201   -9.275852    4.344300 H         1 <1>         0.407700 
     58 H           3.983705  -10.916468    3.611721 H         1 <1>         0.142000 
     59 H           2.052894   -9.736611    2.601209 H         1 <1>         0.122700 
     60 H          -1.182419   -4.089481    2.470533 H         1 <1>         0.124400 
     61 H           0.541027   -3.750792    2.716039 H         1 <1>         0.142900 
     62 H           0.387428   -1.551507    1.855702 H         1 <1>         0.183200 
     63 H          -1.193691   -1.730750    2.609866 H         1 <1>         0.137600 
@<TRIPOS>BOND
     1    9   43 1    
     2    9   42 1    
     3    9   41 1    
     4    8    9 1    
     5   20   50 1    
     6    7   40 1    
     7   19   48 1    
     8   19   49 1    
     9   22   53 1    
    10   19   20 1    
    11   20   51 1    
    12   20   21 1    
    13   18   19 1    
    14    8    7 ar   
    15    7    4 ar   
    16   10    8 ar   
    17   22   23 1    
    18   21   22 1    
    19   22   52 1    
    20   23   24 2    
    21   23   25 1    
    22   21   33 1    
    23   25   54 1    
    24   25   26 1    
    25    5    6 3    
    26    4    5 1    
    27   27   55 1    
    28    4    3 ar   
    29   26   27 ar   
    30   26   32 ar   
    31   11   10 1    
    32   10    2 ar   
    33   12   11 1    
    34   27   28 ar   
    35   32   59 1    
    36   32   31 ar   
    37   28   56 1    
    38   28   29 ar   
    39   18   47 1    
    40   17   18 1    
    41   18   34 1    
    42   35   12 ar   
    43   16   35 ar   
    44   12   13 ar   
    45   31   29 ar   
    46   31   58 1    
    47   29   30 1    
    48   16   17 1    
    49   16   15 ar   
    50   17   46 1    
    51   30   57 1    
    52   13   44 1    
    53   13   14 ar   
    54   15   14 ar   
    55   14   45 1    
    56   34   62 1    
    57   33   34 1    
    58   33   61 1    
    59   33   60 1    
    60    3    2 ar   
    61    3   39 1    
    62    2    1 1    
    63   34   63 1    
    64    1   36 1    
    65    1   38 1    
    66    1   37 1    
@<TRIPOS>SUBSTRUCTURE
     1 ****        6 TEMP              0 ****  ****    0 ROOT 
