#	Name:			WZY-2015-EJMC-1-4-7c
#	Creating user name:	Administrator
#	Creation time:		Sun Jul 05 16:18:59 2020

#	Modifying user name:	Administrator
#	Modification time:	Sun Jul 05 16:19:33 2020

@<TRIPOS>MOLECULE
WZY-2015-EJMC-1-4-7c
   65    68     1     0     0
SMALL
MULLIKEN_CHARGES
INVALID_CHARGES
Gaussian 16 #p B3LYP/6-31G* opt
@<TRIPOS>ATOM
      1 C         -13.978523   -3.268671    1.870225 C.3       1 <1>        -0.531900 
      2 C         -12.529937   -3.540046    2.205521 C.ar      1 <1>         0.180000 
      3 C         -12.185299   -4.424634    3.237164 C.ar      1 <1>        -0.176400 
      4 C         -10.846091   -4.679930    3.522771 C.ar      1 <1>        -0.142400 
      5 C          -9.817757   -4.070433    2.802672 C.ar      1 <1>        -0.167300 
      6 C         -10.152557   -3.183737    1.770701 C.ar      1 <1>         0.365800 
      7 N          -9.189753   -2.512287    0.983608 N.am      1 <1>        -0.719100 
      8 C          -7.816121   -2.590525    1.023870 C.2       1 <1>         0.608100 
      9 O          -7.184675   -3.267572    1.823874 O.2       1 <1>        -0.500700 
     10 C          -7.124992   -1.752010   -0.080009 C.3       1 <1>        -0.247500 
     11 N          -5.720259   -1.500206    0.098597 N.3       1 <1>        -0.389300 
     12 C          -4.816019   -2.641624   -0.051657 C.3       1 <1>        -0.128600 
     13 C          -3.415822   -2.132936   -0.460261 C.3       1 <1>        -0.287900 
     14 C          -3.133654   -0.737253    0.137511 C.3       1 <1>         0.085700 
     15 N          -1.694789   -0.533408    0.254552 N.3       1 <1>        -0.654500 
     16 C          -1.074721    0.674540    0.274671 C.ar      1 <1>         0.677100 
     17 N          -1.823699    1.779814    0.068935 N.ar      1 <1>        -0.487400 
     18 C          -1.147230    2.929809    0.069443 C.ar      1 <1>         0.057900 
     19 C           0.225590    3.031371    0.272208 C.ar      1 <1>        -0.230400 
     20 C           0.879630    1.807686    0.485742 C.ar      1 <1>         0.532100 
     21 O           2.226435    1.704096    0.711376 O.3       1 <1>        -0.537000 
     22 C           3.021283    2.843778    0.735681 C.ar      1 <1>         0.200900 
     23 C           3.254911    3.465468    1.971836 C.ar      1 <1>         0.172000 
     24 C           2.586489    2.960329    3.225847 C.3       1 <1>        -0.530900 
     25 C           4.127544    4.554290    1.994550 C.ar      1 <1>        -0.228400 
     26 C           4.748379    4.999196    0.817779 C.ar      1 <1>         0.165300 
     27 C           5.641798    6.119968    0.859649 C.1       1 <1>         0.230500 
     28 N           6.365039    7.030772    0.893196 N.1       1 <1>        -0.480100 
     29 C           4.502649    4.344683   -0.398624 C.ar      1 <1>        -0.228400 
     30 C           3.635924    3.252561   -0.457686 C.ar      1 <1>         0.172300 
     31 C           3.367418    2.524192   -1.750737 C.3       1 <1>        -0.531200 
     32 N           0.260359    0.642502    0.491008 N.ar      1 <1>        -0.542600 
     33 C          -3.878512   -0.578032    1.473576 C.3       1 <1>        -0.305800 
     34 C          -5.401935   -0.644431    1.249569 C.3       1 <1>        -0.111700 
     35 C         -11.503510   -2.928233    1.485123 C.ar      1 <1>        -0.260100 
     36 H         -14.440598   -4.132027    1.373945 H         1 <1>         0.166600 
     37 H         -14.083412   -2.408924    1.200612 H         1 <1>         0.152600 
     38 H         -14.565694   -3.065390    2.773135 H         1 <1>         0.162600 
     39 H         -12.968290   -4.909869    3.815024 H         1 <1>         0.120500 
     40 H         -10.588326   -5.365866    4.325666 H         1 <1>         0.132500 
     41 H          -8.778864   -4.265295    3.026829 H         1 <1>         0.181600 
     42 H          -9.576494   -1.898444    0.277848 H         1 <1>         0.330400 
     43 H          -7.646715   -0.786868   -0.174221 H         1 <1>         0.148100 
     44 H          -7.273550   -2.279494   -1.033795 H         1 <1>         0.168500 
     45 H          -5.217071   -3.297682   -0.832035 H         1 <1>         0.134700 
     46 H          -4.760185   -3.247988    0.863972 H         1 <1>         0.157200 
     47 H          -2.663496   -2.851161   -0.104129 H         1 <1>         0.123700 
     48 H          -3.318293   -2.085039   -1.550344 H         1 <1>         0.148500 
     49 H          -3.502440    0.031523   -0.545441 H         1 <1>         0.176300 
     50 H          -1.105000   -1.316710    0.500749 H         1 <1>         0.330700 
     51 H          -1.738887    3.829044   -0.098589 H         1 <1>         0.147200 
     52 H           0.740586    3.982854    0.270456 H         1 <1>         0.151700 
     53 H           2.962328    3.488780    4.106364 H         1 <1>         0.161000 
     54 H           1.499914    3.102177    3.183669 H         1 <1>         0.175200 
     55 H           2.762421    1.887939    3.360847 H         1 <1>         0.185400 
     56 H           4.332985    5.060950    2.932377 H         1 <1>         0.155300 
     57 H           4.996794    4.690149   -1.301395 H         1 <1>         0.155200 
     58 H           2.323920    2.642564   -2.066259 H         1 <1>         0.175700 
     59 H           4.007803    2.904764   -2.551255 H         1 <1>         0.160900 
     60 H           3.546678    1.449389   -1.641336 H         1 <1>         0.185500 
     61 H          -3.612994    0.377026    1.936882 H         1 <1>         0.157700 
     62 H          -3.557402   -1.371785    2.160907 H         1 <1>         0.138300 
     63 H          -5.789469    0.360896    1.030286 H         1 <1>         0.134700 
     64 H          -5.891137   -0.991945    2.173643 H         1 <1>         0.142400 
     65 H         -11.757147   -2.236238    0.682694 H         1 <1>         0.111100 
@<TRIPOS>BOND
     1    1   37 1    
     2   18   51 1    
     3   35   65 1    
     4   10   43 1    
     5   18   17 ar   
     6   19   18 ar   
     7    1   38 1    
     8    1   36 1    
     9    2    1 1    
    10    7   42 1    
    11   19   52 1    
    12   34   63 1    
    13   16   17 ar   
    14   27   28 3    
    15   20   19 ar   
    16   31   58 1    
    17   35    2 ar   
    18    6   35 ar   
    19   29   57 1    
    20   10   44 1    
    21   14   49 1    
    22   11   10 1    
    23   10    8 1    
    24   31   59 1    
    25   26   27 1    
    26    2    3 ar   
    27    7    6 1    
    28    8    7 1    
    29   29   26 ar   
    30   30   29 ar   
    31   30   31 1    
    32   31   60 1    
    33   34   11 1    
    34   11   12 1    
    35   25   26 ar   
    36   34   64 1    
    37   33   34 1    
    38    6    5 ar   
    39   22   30 ar   
    40    8    9 2    
    41   33   61 1    
    42   16   15 1    
    43   32   16 ar   
    44   14   33 1    
    45   15   14 1    
    46   14   13 1    
    47   20   32 ar   
    48   21   20 1    
    49   13   48 1    
    50   25   56 1    
    51   23   25 ar   
    52   33   62 1    
    53   22   23 ar   
    54   22   21 1    
    55    3   39 1    
    56    3    4 ar   
    57   12   45 1    
    58   15   50 1    
    59   23   24 1    
    60   12   13 1    
    61   12   46 1    
    62   13   47 1    
    63   24   54 1    
    64    5    4 ar   
    65    5   41 1    
    66   24   53 1    
    67   24   55 1    
    68    4   40 1    
@<TRIPOS>SUBSTRUCTURE
     1 ****       58 TEMP              0 ****  ****    0 ROOT 
