#	Name:			WZY-2015-EJMC-1-4-7j
#	Creating user name:	Administrator
#	Creation time:		Sun Jul 05 16:19:01 2020

#	Modifying user name:	Administrator
#	Modification time:	Sun Jul 05 16:19:33 2020

@<TRIPOS>MOLECULE
WZY-2015-EJMC-1-4-7j
   62    65     1     0     0
SMALL
MULLIKEN_CHARGES
INVALID_CHARGES
Gaussian 16 #p B3LYP/6-31G* opt
@<TRIPOS>ATOM
      1 C           3.371657    2.533239   -1.746706 C.3       1 <1>        -0.531500 
      2 C           3.636384    3.257976   -0.450806 C.ar      1 <1>         0.172800 
      3 C           4.501990    4.350880   -0.386890 C.ar      1 <1>        -0.228000 
      4 C           4.744859    5.001808    0.831838 C.ar      1 <1>         0.166000 
      5 C           5.637267    6.123337    0.878504 C.1       1 <1>         0.231300 
      6 N           6.359632    7.034524    0.915937 N.1       1 <1>        -0.478100 
      7 C           4.122767    4.552733    2.006325 C.ar      1 <1>        -0.228000 
      8 C           3.251324    3.463020    1.979124 C.ar      1 <1>         0.172600 
      9 C           2.582636    2.953311    3.231276 C.3       1 <1>        -0.531400 
     10 C           3.020488    2.845786    0.740467 C.ar      1 <1>         0.198100 
     11 O           2.225601    1.704322    0.710925 O.3       1 <1>        -0.536000 
     12 C           0.880782    1.807735    0.486926 C.ar      1 <1>         0.533500 
     13 C           0.223293    3.031323    0.280709 C.ar      1 <1>        -0.228000 
     14 C          -1.147682    2.930250    0.070596 C.ar      1 <1>         0.057900 
     15 N          -1.822214    1.777573    0.060931 N.ar      1 <1>        -0.485500 
     16 C          -1.071974    0.675682    0.268562 C.ar      1 <1>         0.674500 
     17 N          -1.697983   -0.531618    0.266377 N.3       1 <1>        -0.651200 
     18 C          -3.113028   -0.736855   -0.047472 C.3       1 <1>         0.066000 
     19 C          -4.028211   -0.398545    1.150074 C.3       1 <1>        -0.273400 
     20 C          -3.889180   -1.431741    2.278018 C.3       1 <1>        -0.159800 
     21 N          -4.119175   -2.824949    1.841494 N.3       1 <1>        -0.412800 
     22 C          -5.533054   -3.145692    1.641269 C.3       1 <1>        -0.225400 
     23 C          -6.267569   -3.542338    2.936230 C.2       1 <1>         0.582600 
     24 O          -7.490792   -3.518594    2.990097 O.2       1 <1>        -0.510400 
     25 N          -5.423152   -3.948249    3.930375 N.am      1 <1>        -0.714300 
     26 C          -5.727752   -4.418165    5.222305 C.ar      1 <1>         0.358200 
     27 C          -7.043199   -4.558047    5.694383 C.ar      1 <1>        -0.162900 
     28 C          -7.268730   -5.030598    6.986684 C.ar      1 <1>        -0.213100 
     29 C          -6.190136   -5.360373    7.797250 C.ar      1 <1>         0.379600 
     30 F          -6.416787   -5.818296    9.049007 F         1 <1>        -0.302000 
     31 C          -4.880296   -5.231025    7.351382 C.ar      1 <1>        -0.201800 
     32 C          -4.654871   -4.758496    6.061418 C.ar      1 <1>        -0.194100 
     33 C          -3.239309   -3.170169    0.716624 C.3       1 <1>        -0.153300 
     34 C          -3.336824   -2.198662   -0.475980 C.3       1 <1>        -0.306100 
     35 N           0.261751    0.641143    0.482911 N.ar      1 <1>        -0.543100 
     36 H           2.329256    2.652717   -2.065850 H         1 <1>         0.174700 
     37 H           3.551169    1.458133   -1.640042 H         1 <1>         0.185000 
     38 H           4.014462    2.916111   -2.544022 H         1 <1>         0.162800 
     39 H           4.997261    4.699467   -1.287782 H         1 <1>         0.156700 
     40 H           4.326503    5.056662    2.946028 H         1 <1>         0.156900 
     41 H           2.760011    1.880732    3.363415 H         1 <1>         0.184900 
     42 H           1.495920    3.094429    3.189639 H         1 <1>         0.174500 
     43 H           2.957567    3.479377    4.113341 H         1 <1>         0.163000 
     44 H           0.737285    3.983263    0.284412 H         1 <1>         0.155400 
     45 H          -1.739721    3.828751   -0.098350 H         1 <1>         0.151800 
     46 H          -1.080912   -1.324676    0.366425 H         1 <1>         0.334800 
     47 H          -3.362448   -0.066295   -0.876594 H         1 <1>         0.161900 
     48 H          -3.787473    0.603736    1.517847 H         1 <1>         0.168100 
     49 H          -5.065940   -0.363582    0.792831 H         1 <1>         0.141400 
     50 H          -4.581724   -1.208453    3.096538 H         1 <1>         0.156200 
     51 H          -2.874912   -1.379795    2.694853 H         1 <1>         0.149900 
     52 H          -6.128801   -2.342121    1.185838 H         1 <1>         0.165000 
     53 H          -5.609595   -4.008075    0.967489 H         1 <1>         0.173700 
     54 H          -4.442794   -3.871761    3.667427 H         1 <1>         0.349600 
     55 H          -7.868385   -4.295839    5.046863 H         1 <1>         0.192100 
     56 H          -8.278175   -5.144772    7.368218 H         1 <1>         0.149100 
     57 H          -4.057934   -5.496948    8.007263 H         1 <1>         0.145600 
     58 H          -3.634084   -4.653157    5.701108 H         1 <1>         0.130900 
     59 H          -3.467000   -4.192089    0.394483 H         1 <1>         0.152200 
     60 H          -2.209921   -3.190620    1.102723 H         1 <1>         0.139400 
     61 H          -2.617729   -2.481437   -1.255871 H         1 <1>         0.146600 
     62 H          -4.335236   -2.274778   -0.923718 H         1 <1>         0.154800 
@<TRIPOS>BOND
     1    1   37 1    
     2   33   59 1    
     3   33   60 1    
     4   34   61 1    
     5    1   38 1    
     6   34   33 1    
     7   33   21 1    
     8   32   58 1    
     9    1   36 1    
    10    2    1 1    
    11   31   57 1    
    12   17   46 1    
    13   10   11 1    
    14   11   12 1    
    15   34   62 1    
    16   18   34 1    
    17   32   31 ar   
    18   26   32 ar   
    19   31   29 ar   
    20   10    2 ar   
    21    2    3 ar   
    22   25   54 1    
    23   22   53 1    
    24   12   35 ar   
    25   35   16 ar   
    26    3   39 1    
    27    9   41 1    
    28    8   10 ar   
    29   21   22 1    
    30   21   20 1    
    31   16   17 1    
    32   17   18 1    
    33    3    4 ar   
    34   25   26 1    
    35   23   25 1    
    36   26   27 ar   
    37   12   13 ar   
    38   29   30 1    
    39   29   28 ar   
    40   22   23 1    
    41   22   52 1    
    42   20   51 1    
    43    8    9 1    
    44    8    7 ar   
    45   16   15 ar   
    46    4    7 ar   
    47    4    5 1    
    48   18   47 1    
    49   18   19 1    
    50    9   43 1    
    51    9   42 1    
    52    7   40 1    
    53   23   24 2    
    54    5    6 3    
    55   20   19 1    
    56   20   50 1    
    57   27   28 ar   
    58   27   55 1    
    59   28   56 1    
    60   13   44 1    
    61   13   14 ar   
    62   19   49 1    
    63   19   48 1    
    64   15   14 ar   
    65   14   45 1    
@<TRIPOS>SUBSTRUCTURE
     1 ****       46 TEMP              0 ****  ****    0 ROOT 
