#	Name:			WZY-2015-EJMC-1-4-7s
#	Creating user name:	Administrator
#	Creation time:		Sun Jul 05 16:19:02 2020

#	Modifying user name:	Administrator
#	Modification time:	Sun Jul 05 16:19:33 2020

@<TRIPOS>MOLECULE
WZY-2015-EJMC-1-4-7s
   63    66     1     0     0
SMALL
MULLIKEN_CHARGES
INVALID_CHARGES
Gaussian 16 #p B3LYP/6-31G* opt
@<TRIPOS>ATOM
      1 C           3.370218    2.550233   -1.748958 C.3       1 <1>        -0.531000 
      2 C           3.634536    3.274959   -0.452906 C.ar      1 <1>         0.172500 
      3 C           4.496503    4.370639   -0.389923 C.ar      1 <1>        -0.228200 
      4 C           4.738278    5.022479    0.828688 C.ar      1 <1>         0.165800 
      5 C           5.627713    6.146297    0.874610 C.1       1 <1>         0.231000 
      6 N           6.348410    7.058940    0.911206 N.1       1 <1>        -0.478600 
      7 C           4.117984    4.571762    2.003442 C.ar      1 <1>        -0.228200 
      8 C           3.250256    3.479082    1.976959 C.ar      1 <1>         0.172300 
      9 C           2.582907    2.968432    3.229405 C.3       1 <1>        -0.531100 
     10 C           3.021277    2.859905    0.738863 C.ar      1 <1>         0.200200 
     11 O           2.231150    1.715813    0.709966 O.3       1 <1>        -0.538500 
     12 C           0.884368    1.816337    0.486730 C.ar      1 <1>         0.527200 
     13 C           0.223532    3.031657    0.278885 C.ar      1 <1>        -0.231500 
     14 C          -1.152114    2.919149    0.071118 C.ar      1 <1>         0.061300 
     15 N          -1.814909    1.766698    0.063581 N.ar      1 <1>        -0.490700 
     16 C          -1.057709    0.661136    0.274143 C.ar      1 <1>         0.672500 
     17 N          -1.735582   -0.515788    0.255770 N.3       1 <1>        -0.649600 
     18 C          -1.221190   -1.863418    0.503744 C.3       1 <1>         0.067800 
     19 C          -0.686989   -2.054316    1.943744 C.3       1 <1>        -0.266900 
     20 C           0.234718   -3.287956    2.026063 C.3       1 <1>        -0.144200 
     21 N          -0.176021   -4.274418    1.022564 N.3       1 <1>        -0.386800 
     22 C           0.298475   -5.611597    1.263559 C.3       1 <1>        -0.219200 
     23 C          -0.359940   -6.274437    2.486471 C.2       1 <1>         0.618400 
     24 O          -1.335680   -5.823267    3.058762 O.2       1 <1>        -0.481800 
     25 N           0.273423   -7.452919    2.846104 N.am      1 <1>        -0.728000 
     26 C          -0.064314   -8.367593    3.855977 C.ar      1 <1>         0.377900 
     27 C          -1.163266   -8.195731    4.716119 C.ar      1 <1>        -0.166400 
     28 C          -1.428049   -9.150620    5.690401 C.ar      1 <1>        -0.152800 
     29 C          -0.615215  -10.287293    5.832909 C.ar      1 <1>         0.133900 
     30 C          -0.898266  -11.263551    6.841178 C.1       1 <1>         0.230500 
     31 N          -1.126318  -12.058673    7.659840 N.1       1 <1>        -0.480400 
     32 C           0.482324  -10.454353    4.971258 C.ar      1 <1>        -0.140500 
     33 C           0.750823   -9.505394    3.996980 C.ar      1 <1>        -0.203200 
     34 C           0.135453   -3.823264   -0.339632 C.3       1 <1>        -0.114400 
     35 C          -0.161024   -2.317224   -0.514200 C.3       1 <1>        -0.311900 
     36 N           0.272839    0.641409    0.487744 N.ar      1 <1>        -0.535400 
     37 H           4.008703    2.937409   -2.547677 H         1 <1>         0.162100 
     38 H           3.555643    1.476033   -1.644134 H         1 <1>         0.182600 
     39 H           2.326160    2.664561   -2.064404 H         1 <1>         0.176000 
     40 H           4.989704    4.721126   -1.291189 H         1 <1>         0.156100 
     41 H           4.320089    5.076860    2.942877 H         1 <1>         0.156500 
     42 H           2.765967    1.897140    3.364259 H         1 <1>         0.183200 
     43 H           1.495571    3.103517    3.185762 H         1 <1>         0.176200 
     44 H           2.953947    3.498402    4.110911 H         1 <1>         0.162500 
     45 H           0.730801    3.987091    0.278890 H         1 <1>         0.153200 
     46 H          -1.749826    3.814103   -0.097749 H         1 <1>         0.150800 
     47 H          -2.728860   -0.400036    0.115732 H         1 <1>         0.338400 
     48 H          -2.091916   -2.514862    0.381699 H         1 <1>         0.152900 
     49 H          -1.536385   -2.174574    2.624430 H         1 <1>         0.147900 
     50 H          -0.131203   -1.163725    2.248025 H         1 <1>         0.161900 
     51 H           0.153946   -3.741088    3.016043 H         1 <1>         0.160100 
     52 H           1.293486   -2.995234    1.884926 H         1 <1>         0.119500 
     53 H           1.404448   -5.673526    1.370902 H         1 <1>         0.123900 
     54 H           0.046312   -6.229870    0.389763 H         1 <1>         0.173400 
     55 H           1.091323   -7.699375    2.302568 H         1 <1>         0.335000 
     56 H          -1.789980   -7.322093    4.610650 H         1 <1>         0.198800 
     57 H          -2.277042   -9.016041    6.353022 H         1 <1>         0.163400 
     58 H           1.118127  -11.327981    5.070802 H         1 <1>         0.160700 
     59 H           1.602508   -9.644824    3.334804 H         1 <1>         0.135700 
     60 H          -0.474182   -4.418646   -1.032615 H         1 <1>         0.141000 
     61 H           1.195538   -4.014089   -0.600480 H         1 <1>         0.113900 
     62 H           0.743903   -1.722674   -0.365854 H         1 <1>         0.180000 
     63 H          -0.509495   -2.122837   -1.534388 H         1 <1>         0.142800 
@<TRIPOS>BOND
     1    1   37 1    
     2   34   61 1    
     3    1   38 1    
     4   34   60 1    
     5   22   54 1    
     6   33   59 1    
     7    1   39 1    
     8    2    1 1    
     9   22   53 1    
    10   25   55 1    
    11   35   34 1    
    12   34   21 1    
    13    3   40 1    
    14   35   63 1    
    15   21   22 1    
    16   22   23 1    
    17   35   62 1    
    18   32   58 1    
    19   18   35 1    
    20   33   32 ar   
    21   26   33 ar   
    22    2    3 ar   
    23   10    2 ar   
    24    3    4 ar   
    25   23   25 1    
    26   25   26 1    
    27   20   21 1    
    28   32   29 ar   
    29   20   52 1    
    30   23   24 2    
    31   26   27 ar   
    32   11   10 1    
    33   12   11 1    
    34    5    6 3    
    35    4    5 1    
    36    4    7 ar   
    37   10    8 ar   
    38   20   51 1    
    39   19   20 1    
    40   18   48 1    
    41   17   18 1    
    42   18   19 1    
    43   36   12 ar   
    44   16   36 ar   
    45   12   13 ar   
    46   29   30 1    
    47   29   28 ar   
    48   17   16 1    
    49   17   47 1    
    50   27   28 ar   
    51   27   56 1    
    52   19   50 1    
    53   19   49 1    
    54   16   15 ar   
    55    7    8 ar   
    56    7   41 1    
    57    8    9 1    
    58   30   31 3    
    59   13   45 1    
    60   13   14 ar   
    61   28   57 1    
    62   15   14 ar   
    63    9   42 1    
    64   14   46 1    
    65    9   43 1    
    66    9   44 1    
@<TRIPOS>SUBSTRUCTURE
     1 ****       55 TEMP              0 ****  ****    0 ROOT 
