#	Name:			WZY-2015-EJMC-1-4-7r
#	Creating user name:	Administrator
#	Creation time:		Sun Jul 05 16:19:02 2020

#	Modifying user name:	Administrator
#	Modification time:	Sun Jul 05 16:19:33 2020

@<TRIPOS>MOLECULE
WZY-2015-EJMC-1-4-7r
   62    65     1     0     0
SMALL
MULLIKEN_CHARGES
INVALID_CHARGES
Gaussian 16 #p B3LYP/6-31G* opt
@<TRIPOS>ATOM
      1 C           3.267244    0.503952   -1.598361 C.3       1 <1>        -0.533800 
      2 C           3.488551   -0.032736   -0.207066 C.ar      1 <1>         0.176600 
      3 C           4.262971   -1.170299    0.022881 C.ar      1 <1>        -0.230700 
      4 C           4.453951   -1.654886    1.325383 C.ar      1 <1>         0.165600 
      5 C           5.253136   -2.824899    1.544515 C.1       1 <1>         0.228500 
      6 N           5.899697   -3.775750    1.722910 N.1       1 <1>        -0.482500 
      7 C           3.868287   -0.992976    2.414859 C.ar      1 <1>        -0.230700 
      8 C           3.088183    0.147095    2.219537 C.ar      1 <1>         0.178200 
      9 C           2.446651    0.872368    3.374960 C.3       1 <1>        -0.534700 
     10 C           2.914556    0.597369    0.904473 C.ar      1 <1>         0.246300 
     11 O           2.226653    1.796316    0.701719 O.3       1 <1>        -0.570000 
     12 C           0.880902    1.772506    0.490570 C.ar      1 <1>         0.568000 
     13 C           0.244662    3.008235    0.299327 C.ar      1 <1>        -0.220400 
     14 C          -1.122212    2.929006    0.078982 C.ar      1 <1>         0.060100 
     15 N          -1.811593    1.781058    0.047013 N.ar      1 <1>        -0.491800 
     16 C          -1.086637    0.667183    0.256457 C.ar      1 <1>         0.673300 
     17 N          -1.731933   -0.530475    0.279658 N.3       1 <1>        -0.651700 
     18 C          -3.131837   -0.720233   -0.091047 C.3       1 <1>         0.073300 
     19 C          -3.327857   -0.770426   -1.626268 C.3       1 <1>        -0.297100 
     20 C          -4.649420   -1.446130   -1.989502 C.3       1 <1>        -0.136900 
     21 N          -4.635870   -2.862062   -1.596201 N.3       1 <1>        -0.363600 
     22 C          -5.948141   -3.450818   -1.575756 C.3       1 <1>        -0.225300 
     23 C          -6.556998   -3.586907   -2.988236 C.2       1 <1>         0.618500 
     24 O          -5.892231   -3.565905   -4.009762 O.2       1 <1>        -0.486300 
     25 N          -7.925267   -3.765271   -2.954807 N.am      1 <1>        -0.724500 
     26 C          -8.814933   -4.011280   -4.019854 C.ar      1 <1>         0.363000 
     27 C          -8.408483   -4.086628   -5.361475 C.ar      1 <1>        -0.159700 
     28 C          -9.352254   -4.334022   -6.357506 C.ar      1 <1>        -0.165000 
     29 C         -10.693942   -4.505009   -6.026623 C.ar      1 <1>         0.085700 
     30 BR        -11.978140   -4.842758   -7.403554 Br        1 <1>        -0.136100 
     31 C         -11.111541   -4.431892   -4.699615 C.ar      1 <1>        -0.153000 
     32 C         -10.171573   -4.186184   -3.703788 C.ar      1 <1>        -0.196300 
     33 C          -3.781479   -3.161797   -0.437277 C.3       1 <1>        -0.140300 
     34 C          -3.701732   -2.003546    0.569120 C.3       1 <1>        -0.308400 
     35 N           0.251733    0.612580    0.474211 N.ar      1 <1>        -0.561000 
     36 H           3.866882   -0.046861   -2.328420 H         1 <1>         0.160900 
     37 H           3.532577    1.564751   -1.662427 H         1 <1>         0.175800 
     38 H           2.213616    0.416389   -1.889047 H         1 <1>         0.178300 
     39 H           4.724655   -1.686365   -0.813293 H         1 <1>         0.153100 
     40 H           4.026398   -1.372385    3.419620 H         1 <1>         0.152400 
     41 H           2.699088    1.938236    3.365042 H         1 <1>         0.175600 
     42 H           2.771956    0.449122    4.329383 H         1 <1>         0.160100 
     43 H           1.353818    0.798350    3.325195 H         1 <1>         0.179300 
     44 H           0.792250    3.941484    0.317250 H         1 <1>         0.148800 
     45 H          -1.703839    3.834666   -0.086693 H         1 <1>         0.148700 
     46 H          -1.121299   -1.336693    0.308180 H         1 <1>         0.330400 
     47 H          -3.662560    0.153096    0.295729 H         1 <1>         0.171400 
     48 H          -2.502991   -1.329012   -2.086305 H         1 <1>         0.149000 
     49 H          -3.292871    0.245189   -2.032229 H         1 <1>         0.163600 
     50 H          -5.480009   -0.901502   -1.492921 H         1 <1>         0.106300 
     51 H          -4.829852   -1.385872   -3.067268 H         1 <1>         0.174200 
     52 H          -6.672374   -2.901156   -0.932584 H         1 <1>         0.114700 
     53 H          -5.878289   -4.468092   -1.169068 H         1 <1>         0.173900 
     54 H          -8.355618   -3.729452   -2.039567 H         1 <1>         0.330000 
     55 H          -7.365710   -3.950958   -5.611334 H         1 <1>         0.195400 
     56 H          -9.036711   -4.392177   -7.393643 H         1 <1>         0.158500 
     57 H         -12.157103   -4.565595   -4.444806 H         1 <1>         0.154900 
     58 H         -10.498591   -4.130401   -2.667388 H         1 <1>         0.129800 
     59 H          -4.157583   -4.064964    0.054096 H         1 <1>         0.138300 
     60 H          -2.768723   -3.408304   -0.790268 H         1 <1>         0.143100 
     61 H          -3.089467   -2.284752    1.434321 H         1 <1>         0.148000 
     62 H          -4.706459   -1.794562    0.955701 H         1 <1>         0.148300 
@<TRIPOS>BOND
     1    1   36 1    
     2    1   37 1    
     3    1   38 1    
     4    2    1 1    
     5   28   56 1    
     6    3   39 1    
     7    2    3 ar   
     8   10    2 ar   
     9    3    4 ar   
    10   13   44 1    
    11   27   55 1    
    12   27   28 ar   
    13   28   29 ar   
    14   29   30 1    
    15   11   10 1    
    16   12   11 1    
    17   12   13 ar   
    18   14   13 ar   
    19   19   49 1    
    20   14   45 1    
    21   20   51 1    
    22   19   48 1    
    23   26   27 ar   
    24   10    8 ar   
    25   35   12 ar   
    26   15   14 ar   
    27   23   24 2    
    28   29   31 ar   
    29   20   19 1    
    30   19   18 1    
    31    4    5 1    
    32    7    4 ar   
    33   16   35 ar   
    34   16   15 ar   
    35    5    6 3    
    36   20   50 1    
    37   21   20 1    
    38   17   16 1    
    39    8    7 ar   
    40    8    9 1    
    41   23   25 1    
    42   22   23 1    
    43   25   26 1    
    44   26   32 ar   
    45    7   40 1    
    46   17   46 1    
    47   18   17 1    
    48   21   22 1    
    49   21   33 1    
    50   31   32 ar   
    51   31   57 1    
    52   18   47 1    
    53   18   34 1    
    54   33   60 1    
    55   25   54 1    
    56    9   41 1    
    57   32   58 1    
    58   22   53 1    
    59   22   52 1    
    60    9   43 1    
    61    9   42 1    
    62   33   34 1    
    63   33   59 1    
    64   34   61 1    
    65   34   62 1    
@<TRIPOS>SUBSTRUCTURE
     1 ****       44 TEMP              0 ****  ****    0 ROOT 
