#	Name:			WZY-2015-EJMC-1-4-7y
#	Creating user name:	Administrator
#	Creation time:		Sun Jul 05 16:19:04 2020

#	Modifying user name:	Administrator
#	Modification time:	Sun Jul 05 16:19:33 2020

@<TRIPOS>MOLECULE
WZY-2015-EJMC-1-4-7y
   67    70     1     0     0
SMALL
MULLIKEN_CHARGES
INVALID_CHARGES
Gaussian 16 #p B3LYP/6-31G* opt
@<TRIPOS>ATOM
      1 C           3.373899    2.540019   -1.742237 C.3       1 <1>        -0.531200 
      2 C           3.637724    3.259021   -0.442922 C.ar      1 <1>         0.172400 
      3 C           4.503692    4.351189   -0.373307 C.ar      1 <1>        -0.228300 
      4 C           4.745410    4.996862    0.848466 C.ar      1 <1>         0.165600 
      5 C           5.637642    6.118128    0.901193 C.1       1 <1>         0.230800 
      6 N           6.359591    7.029512    0.943434 N.1       1 <1>        -0.479200 
      7 C           4.121700    4.542786    2.020251 C.ar      1 <1>        -0.228300 
      8 C           3.249871    3.453575    1.987091 C.ar      1 <1>         0.172300 
      9 C           2.578976    2.938532    3.235923 C.3       1 <1>        -0.531200 
     10 C           3.019927    2.841515    0.745642 C.ar      1 <1>         0.199700 
     11 O           2.224826    1.701522    0.709914 O.3       1 <1>        -0.536100 
     12 C           0.878868    1.807228    0.486981 C.ar      1 <1>         0.533600 
     13 C           0.224429    3.033359    0.284637 C.ar      1 <1>        -0.230500 
     14 C          -1.145871    2.932731    0.072096 C.ar      1 <1>         0.055900 
     15 N          -1.821796    1.781386    0.055950 N.ar      1 <1>        -0.482800 
     16 C          -1.077282    0.674060    0.264852 C.ar      1 <1>         0.673700 
     17 N          -1.690526   -0.536840    0.273047 N.3       1 <1>        -0.647500 
     18 C          -3.104757   -0.833346    0.023594 C.3       1 <1>         0.065500 
     19 C          -3.527504   -0.530794   -1.429504 C.3       1 <1>        -0.294500 
     20 C          -5.037733   -0.719587   -1.585568 C.3       1 <1>        -0.119600 
     21 N          -5.760845    0.272275   -0.788990 N.3       1 <1>        -0.370900 
     22 C          -7.173075    0.065076   -0.698807 C.3       1 <1>        -0.249800 
     23 C          -7.649631   -1.172729    0.106263 C.2       1 <1>         0.605500 
     24 O          -6.914585   -1.828704    0.828037 O.2       1 <1>        -0.491000 
     25 N          -8.996443   -1.438925   -0.066020 N.am      1 <1>        -0.716700 
     26 C          -9.792992   -2.433918    0.525599 C.ar      1 <1>         0.365600 
     27 C         -11.162212   -2.442701    0.204800 C.ar      1 <1>        -0.191100 
     28 C         -12.012179   -3.397673    0.747292 C.ar      1 <1>        -0.154500 
     29 C         -11.496470   -4.356376    1.622932 C.ar      1 <1>        -0.152400 
     30 S         -12.594186   -5.574877    2.351829 S.o2      1 <1>         1.161700 
     31 N         -13.123247   -4.953838    3.829241 N.3       1 <1>        -0.785000 
     32 O         -11.787085   -6.745328    2.691479 O.2       1 <1>        -0.525700 
     33 O         -13.788366   -5.642688    1.510400 O.2       1 <1>        -0.528300 
     34 C         -10.135846   -4.365637    1.938157 C.ar      1 <1>        -0.166700 
     35 C          -9.279979   -3.409882    1.398176 C.ar      1 <1>        -0.153600 
     36 C          -5.052426    0.809760    0.385407 C.3       1 <1>        -0.140300 
     37 C          -4.088060   -0.186359    1.046293 C.3       1 <1>        -0.281500 
     38 N           0.258928    0.642964    0.480460 N.ar      1 <1>        -0.545500 
     39 H           4.016917    2.926686   -2.537637 H         1 <1>         0.161800 
     40 H           2.331543    2.660496   -2.060886 H         1 <1>         0.174800 
     41 H           3.553323    1.464551   -1.640267 H         1 <1>         0.185600 
     42 H           5.000232    4.703571   -1.272147 H         1 <1>         0.155900 
     43 H           4.324462    5.042413    2.962414 H         1 <1>         0.155900 
     44 H           2.754974    1.865166    3.363051 H         1 <1>         0.185800 
     45 H           2.953099    3.460139    4.121118 H         1 <1>         0.161800 
     46 H           1.492452    3.080506    3.193094 H         1 <1>         0.174800 
     47 H           0.739328    3.984723    0.290918 H         1 <1>         0.153400 
     48 H          -1.737017    3.832024   -0.095830 H         1 <1>         0.148500 
     49 H          -1.056946   -1.310242    0.415091 H         1 <1>         0.337600 
     50 H          -3.167138   -1.919150    0.154474 H         1 <1>         0.138600 
     51 H          -2.996406   -1.199981   -2.116060 H         1 <1>         0.135400 
     52 H          -3.253285    0.496341   -1.687676 H         1 <1>         0.175600 
     53 H          -5.323945   -0.605118   -2.641920 H         1 <1>         0.130200 
     54 H          -5.299006   -1.753246   -1.294487 H         1 <1>         0.130400 
     55 H          -7.644460    0.948437   -0.243789 H         1 <1>         0.170800 
     56 H          -7.591919   -0.011396   -1.715928 H         1 <1>         0.151100 
     57 H          -9.488313   -0.822234   -0.700827 H         1 <1>         0.335600 
     58 H         -11.560274   -1.699695   -0.483217 H         1 <1>         0.135700 
     59 H         -13.063438   -3.418040    0.479834 H         1 <1>         0.180100 
     60 H         -13.676286   -4.107520    3.718852 H         1 <1>         0.346400 
     61 H         -12.363406   -4.836526    4.495050 H         1 <1>         0.347800 
     62 H          -9.740094   -5.138129    2.589734 H         1 <1>         0.179400 
     63 H          -8.225123   -3.412726    1.632067 H         1 <1>         0.195900 
     64 H          -4.482518    1.697853    0.087677 H         1 <1>         0.166300 
     65 H          -5.797713    1.132969    1.120239 H         1 <1>         0.127800 
     66 H          -3.521427    0.330199    1.827208 H         1 <1>         0.144800 
     67 H          -4.673580   -0.977344    1.521335 H         1 <1>         0.171800 
@<TRIPOS>BOND
     1    1   41 1    
     2   17   49 1    
     3   19   51 1    
     4   18   50 1    
     5    1   39 1    
     6    1   40 1    
     7    2    1 1    
     8   20   54 1    
     9   30   32 2    
    10   18   17 1    
    11   17   16 1    
    12   19   18 1    
    13   20   19 1    
    14   19   52 1    
    15   16   38 ar   
    16   38   12 ar   
    17   18   37 1    
    18   12   11 1    
    19   11   10 1    
    20   34   62 1    
    21   20   53 1    
    22   10    2 ar   
    23    2    3 ar   
    24   21   20 1    
    25   16   15 ar   
    26   35   63 1    
    27   12   13 ar   
    28    3   42 1    
    29   10    8 ar   
    30   35   34 ar   
    31   34   29 ar   
    32    9   44 1    
    33    3    4 ar   
    34   30   33 2    
    35   29   30 1    
    36   30   31 1    
    37   26   35 ar   
    38   37   67 1    
    39   23   24 2    
    40   29   28 ar   
    41   37   66 1    
    42   37   36 1    
    43    8    9 1    
    44    8    7 ar   
    45   15   14 ar   
    46   23   25 1    
    47   22   23 1    
    48   25   26 1    
    49   26   27 ar   
    50   21   22 1    
    51   21   36 1    
    52    4    7 ar   
    53    4    5 1    
    54    9   46 1    
    55    9   45 1    
    56   13   14 ar   
    57   13   47 1    
    58   28   27 ar   
    59   28   59 1    
    60   25   57 1    
    61   22   56 1    
    62    7   43 1    
    63   27   58 1    
    64   31   61 1    
    65   31   60 1    
    66   22   55 1    
    67   14   48 1    
    68   36   64 1    
    69   36   65 1    
    70    5    6 3    
@<TRIPOS>SUBSTRUCTURE
     1 ****       41 TEMP              0 ****  ****    0 ROOT 
