#	Name:			WZY-2015-EJMC-1-4-7w
#	Creating user name:	Administrator
#	Creation time:		Sun Jul 05 16:19:03 2020

#	Modifying user name:	Administrator
#	Modification time:	Sun Jul 05 16:19:33 2020

@<TRIPOS>MOLECULE
WZY-2015-EJMC-1-4-7w
   64    67     1     0     0
SMALL
MULLIKEN_CHARGES
INVALID_CHARGES
Gaussian 16 #p B3LYP/6-31G* opt
@<TRIPOS>ATOM
      1 C           3.368122    2.517130   -1.753482 C.3       1 <1>        -0.531700 
      2 C           3.635654    3.249703   -0.462457 C.ar      1 <1>         0.173000 
      3 C           4.502216    4.342243   -0.406675 C.ar      1 <1>        -0.227900 
      4 C           4.748005    5.000244    0.807730 C.ar      1 <1>         0.166200 
      5 C           5.640982    6.121571    0.846062 C.1       1 <1>         0.231500 
      6 N           6.363584    7.032884    0.876707 N.1       1 <1>        -0.477500 
      7 C           4.127905    4.558673    1.986109 C.ar      1 <1>        -0.228000 
      8 C           3.255573    3.469509    1.966987 C.ar      1 <1>         0.172600 
      9 C           2.589410    2.967415    3.223644 C.3       1 <1>        -0.531300 
     10 C           3.021723    2.845520    0.732505 C.ar      1 <1>         0.197400 
     11 O           2.225151    1.704473    0.711364 O.3       1 <1>        -0.535200 
     12 C           0.881234    1.807550    0.486385 C.ar      1 <1>         0.533800 
     13 C           0.223769    3.030756    0.275864 C.ar      1 <1>        -0.227400 
     14 C          -1.147623    2.930129    0.070081 C.ar      1 <1>         0.057700 
     15 N          -1.823211    1.777533    0.065594 N.ar      1 <1>        -0.490400 
     16 C          -1.071595    0.676261    0.271349 C.ar      1 <1>         0.676900 
     17 N          -1.697451   -0.531538    0.260153 N.3       1 <1>        -0.657000 
     18 C          -3.123089   -0.727439    0.030622 C.3       1 <1>         0.083400 
     19 C          -3.358291   -2.176867   -0.448991 C.3       1 <1>        -0.308800 
     20 C          -4.784252   -2.627559   -0.113790 C.3       1 <1>        -0.152000 
     21 N          -5.054055   -2.653240    1.346596 N.3       1 <1>        -0.430800 
     22 C          -5.013607   -3.995922    1.915424 C.3       1 <1>        -0.224000 
     23 C          -6.294187   -4.811548    1.675887 C.2       1 <1>         0.588400 
     24 O          -6.296680   -6.030742    1.746470 O.2       1 <1>        -0.495100 
     25 N          -7.391202   -4.016354    1.438466 N.am      1 <1>        -0.719700 
     26 C          -8.723438   -4.382819    1.232388 C.ar      1 <1>         0.386700 
     27 C          -9.160572   -5.721202    1.243803 C.ar      1 <1>        -0.173300 
     28 C         -10.503354   -6.007154    1.030231 C.ar      1 <1>        -0.167700 
     29 C         -11.407623   -4.969206    0.806920 C.ar      1 <1>         0.282000 
     30 N         -12.819459   -5.279610    0.582666 N.pl3     1 <1>         0.372500 
     31 O         -13.590805   -4.337186    0.388864 O.2       1 <1>        -0.404200 
     32 O         -13.158222   -6.464350    0.599817 O.2       1 <1>        -0.401500 
     33 C         -10.992990   -3.636962    0.793185 C.ar      1 <1>        -0.154900 
     34 C          -9.653913   -3.349722    1.005620 C.ar      1 <1>        -0.205900 
     35 C          -4.230135   -1.691024    2.109130 C.3       1 <1>        -0.131000 
     36 C          -3.989153   -0.428330    1.286344 C.3       1 <1>        -0.287200 
     37 N           0.261301    0.641247    0.487146 N.ar      1 <1>        -0.541300 
     38 H           2.325524    2.636053   -2.071964 H         1 <1>         0.174400 
     39 H           3.546531    1.442631   -1.640542 H         1 <1>         0.185600 
     40 H           4.010257    2.894345   -2.554066 H         1 <1>         0.163400 
     41 H           4.996303    4.684906   -1.310435 H         1 <1>         0.157200 
     42 H           4.334075    5.067819    2.922390 H         1 <1>         0.157100 
     43 H           2.768528    1.896037    3.362993 H         1 <1>         0.185300 
     44 H           2.965056    3.500041    4.101485 H         1 <1>         0.163300 
     45 H           1.502414    3.106939    3.182969 H         1 <1>         0.173500 
     46 H           0.738323    3.982423    0.276333 H         1 <1>         0.156100 
     47 H          -1.739720    3.828564   -0.098262 H         1 <1>         0.151700 
     48 H          -1.097793   -1.327354    0.425490 H         1 <1>         0.334200 
     49 H          -3.418969   -0.026655   -0.755720 H         1 <1>         0.168300 
     50 H          -2.649879   -2.854603    0.049167 H         1 <1>         0.139900 
     51 H          -3.169747   -2.263626   -1.524505 H         1 <1>         0.161700 
     52 H          -5.500997   -1.954891   -0.603667 H         1 <1>         0.150000 
     53 H          -4.972880   -3.626819   -0.518699 H         1 <1>         0.160100 
     54 H          -4.902968   -3.911152    3.004234 H         1 <1>         0.182400 
     55 H          -4.171048   -4.611600    1.562228 H         1 <1>         0.163400 
     56 H          -7.152087   -3.026658    1.401484 H         1 <1>         0.355800 
     57 H          -8.444398   -6.511677    1.418890 H         1 <1>         0.199200 
     58 H         -10.860895   -7.029579    1.034807 H         1 <1>         0.185100 
     59 H         -11.718996   -2.852838    0.617901 H         1 <1>         0.182400 
     60 H          -9.317939   -2.315842    0.998649 H         1 <1>         0.140600 
     61 H          -3.255241   -2.128462    2.391696 H         1 <1>         0.126100 
     62 H          -4.751701   -1.456106    3.044596 H         1 <1>         0.150400 
     63 H          -4.956304   -0.016009    0.972766 H         1 <1>         0.147200 
     64 H          -3.500974    0.339648    1.891523 H         1 <1>         0.167600 
@<TRIPOS>BOND
     1    9   44 1    
     2    9   45 1    
     3    7   42 1    
     4    9   43 1    
     5    8    9 1    
     6   35   62 1    
     7   22   54 1    
     8    8    7 ar   
     9    7    4 ar   
    10   36   64 1    
    11   10    8 ar   
    12   35   61 1    
    13   36   35 1    
    14   35   21 1    
    15    5    6 3    
    16   34   60 1    
    17   36   63 1    
    18   18   36 1    
    19   25   56 1    
    20    4    5 1    
    21   33   59 1    
    22   21   22 1    
    23   22   23 1    
    24   22   55 1    
    25   34   33 ar   
    26   26   34 ar   
    27   33   29 ar   
    28   25   26 1    
    29   23   25 1    
    30    4    3 ar   
    31   21   20 1    
    32   26   27 ar   
    33   23   24 2    
    34   30   31 2    
    35   13   46 1    
    36   14   47 1    
    37   29   30 1    
    38   28   29 ar   
    39   30   32 2    
    40   27   28 ar   
    41   27   57 1    
    42   14   13 ar   
    43   12   13 ar   
    44   15   14 ar   
    45   11   10 1    
    46   10    2 ar   
    47   28   58 1    
    48   12   11 1    
    49   37   12 ar   
    50   16   15 ar   
    51   16   37 ar   
    52   17   16 1    
    53   17   18 1    
    54   17   48 1    
    55   18   49 1    
    56   18   19 1    
    57    3    2 ar   
    58    3   41 1    
    59   20   52 1    
    60   20   19 1    
    61   20   53 1    
    62    2    1 1    
    63   19   50 1    
    64   19   51 1    
    65    1   38 1    
    66    1   39 1    
    67    1   40 1    
@<TRIPOS>SUBSTRUCTURE
     1 ****       46 TEMP              0 ****  ****    0 ROOT 
