#	Name:			WZY-2015-EJMC-1-4-7h
#	Creating user name:	Administrator
#	Creation time:		Sun Jul 05 16:19:00 2020

#	Modifying user name:	Administrator
#	Modification time:	Sun Jul 05 16:19:33 2020

@<TRIPOS>MOLECULE
WZY-2015-EJMC-1-4-7h
   62    65     1     0     0
SMALL
MULLIKEN_CHARGES
INVALID_CHARGES
Gaussian 16 #p B3LYP/6-31G* opt
@<TRIPOS>ATOM
      1 C           3.361981    2.566256   -1.743013 C.3       1 <1>        -0.531500 
      2 C           3.630149    3.274549   -0.438715 C.ar      1 <1>         0.172800 
      3 C           4.494022    4.368075   -0.363537 C.ar      1 <1>        -0.228200 
      4 C           4.739948    5.003593    0.862720 C.ar      1 <1>         0.165800 
      5 C           5.630031    6.126271    0.920957 C.1       1 <1>         0.231100 
      6 N           6.350390    7.038728    0.967781 N.1       1 <1>        -0.478700 
      7 C           4.122917    4.537858    2.033442 C.ar      1 <1>        -0.228100 
      8 C           3.253319    3.446963    1.994897 C.ar      1 <1>         0.172400 
      9 C           2.589803    2.919396    3.242488 C.3       1 <1>        -0.531300 
     10 C           3.019041    2.845572    0.749147 C.ar      1 <1>         0.198800 
     11 O           2.225963    1.703760    0.707754 O.3       1 <1>        -0.535700 
     12 C           0.880097    1.808099    0.488213 C.ar      1 <1>         0.533300 
     13 C           0.221724    3.032826    0.293684 C.ar      1 <1>        -0.228800 
     14 C          -1.147959    2.930583    0.073798 C.ar      1 <1>         0.058300 
     15 N          -1.819563    1.777267    0.046383 N.ar      1 <1>        -0.489900 
     16 C          -1.071080    0.674610    0.260544 C.ar      1 <1>         0.677200 
     17 N          -1.700128   -0.531720    0.282398 N.3       1 <1>        -0.652300 
     18 C          -3.102113   -0.746694   -0.049238 C.3       1 <1>         0.070400 
     19 C          -3.354168   -0.826828   -1.567624 C.3       1 <1>        -0.271000 
     20 C          -4.836046   -1.130922   -1.849265 C.3       1 <1>        -0.157000 
     21 N          -5.330946   -2.346094   -1.185888 N.3       1 <1>        -0.407500 
     22 C          -4.907217   -3.605088   -1.796788 C.3       1 <1>        -0.224100 
     23 C          -5.952240   -4.729866   -1.681030 C.2       1 <1>         0.585000 
     24 O          -5.634578   -5.900726   -1.843543 O.2       1 <1>        -0.508900 
     25 N          -7.215227   -4.266621   -1.438017 N.am      1 <1>        -0.719200 
     26 C          -8.406145   -4.994804   -1.318877 C.ar      1 <1>         0.303700 
     27 C          -8.517431   -6.386555   -1.454069 C.ar      1 <1>        -0.167700 
     28 C          -9.764089   -7.000013   -1.314864 C.ar      1 <1>        -0.143300 
     29 C         -10.910686   -6.252953   -1.042957 C.ar      1 <1>        -0.130700 
     30 C         -10.814639   -4.865409   -0.906158 C.ar      1 <1>        -0.199100 
     31 C          -9.574475   -4.269255   -1.044763 C.ar      1 <1>         0.308800 
     32 F          -9.458513   -2.919992   -0.914456 F         1 <1>        -0.305800 
     33 C          -5.086986   -2.285279    0.264874 C.3       1 <1>        -0.157700 
     34 C          -3.617570   -2.016495    0.643269 C.3       1 <1>        -0.291200 
     35 N           0.262521    0.640986    0.475162 N.ar      1 <1>        -0.541200 
     36 H           2.318158    2.687986   -2.056236 H         1 <1>         0.174300 
     37 H           3.543822    1.490253   -1.651115 H         1 <1>         0.185500 
     38 H           4.001085    2.960745   -2.537641 H         1 <1>         0.162400 
     39 H           4.985629    4.729307   -1.261529 H         1 <1>         0.156300 
     40 H           4.328993    5.029700    2.978949 H         1 <1>         0.156400 
     41 H           1.502821    3.059763    3.206800 H         1 <1>         0.174900 
     42 H           2.967551    3.433854    4.130287 H         1 <1>         0.162300 
     43 H           2.768680    1.845340    3.359115 H         1 <1>         0.185800 
     44 H           0.734570    3.985344    0.305268 H         1 <1>         0.154300 
     45 H          -1.739842    3.829378   -0.094037 H         1 <1>         0.149900 
     46 H          -1.083381   -1.330560    0.348124 H         1 <1>         0.331800 
     47 H          -3.648856    0.119503    0.339958 H         1 <1>         0.165500 
     48 H          -3.068155    0.121976   -2.035488 H         1 <1>         0.158700 
     49 H          -2.718102   -1.611001   -2.001736 H         1 <1>         0.132900 
     50 H          -5.449751   -0.291428   -1.493899 H         1 <1>         0.149400 
     51 H          -5.018260   -1.222807   -2.925376 H         1 <1>         0.149000 
     52 H          -4.746737   -3.441741   -2.869520 H         1 <1>         0.176500 
     53 H          -3.967083   -4.017975   -1.403285 H         1 <1>         0.161400 
     54 H          -7.267172   -3.257388   -1.319521 H         1 <1>         0.359800 
     55 H          -7.625427   -6.960338   -1.665007 H         1 <1>         0.189400 
     56 H          -9.833381   -8.078637   -1.422370 H         1 <1>         0.135500 
     57 H         -11.875377   -6.739856   -0.937152 H         1 <1>         0.134800 
     58 H         -11.678458   -4.243653   -0.694823 H         1 <1>         0.145800 
     59 H          -5.715116   -1.481810    0.672821 H         1 <1>         0.150900 
     60 H          -5.434106   -3.220032    0.717523 H         1 <1>         0.157200 
     61 H          -2.994278   -2.873772    0.348835 H         1 <1>         0.136500 
     62 H          -3.526718   -1.917486    1.731611 H         1 <1>         0.154100 
@<TRIPOS>BOND
     1   20   51 1    
     2   14   45 1    
     3    1   38 1    
     4   19   48 1    
     5   20   50 1    
     6    1   36 1    
     7    3   39 1    
     8   19   20 1    
     9   20   21 1    
    10    1   37 1    
    11    2    1 1    
    12   14   15 ar   
    13   13   14 ar   
    14   13   44 1    
    15   19   49 1    
    16   18   19 1    
    17   22   52 1    
    18   31   32 1    
    19    2    3 ar   
    20    3    4 ar   
    21   16   15 ar   
    22   30   58 1    
    23   12   13 ar   
    24    5    6 3    
    25   25   54 1    
    26   10    2 ar   
    27   21   22 1    
    28   21   33 1    
    29    4    5 1    
    30   31   30 ar   
    31   26   31 ar   
    32   30   29 ar   
    33   22   23 1    
    34   22   53 1    
    35   18   47 1    
    36   25   26 1    
    37   23   25 1    
    38    4    7 ar   
    39   26   27 ar   
    40   17   18 1    
    41   18   34 1    
    42   16   17 1    
    43   35   16 ar   
    44   23   24 2    
    45   29   57 1    
    46   29   28 ar   
    47   12   35 ar   
    48   11   12 1    
    49   33   59 1    
    50   10   11 1    
    51   10    8 ar   
    52   27   28 ar   
    53   27   55 1    
    54   17   46 1    
    55   33   34 1    
    56   33   60 1    
    57   28   56 1    
    58    7    8 ar   
    59    7   40 1    
    60    8    9 1    
    61   34   61 1    
    62   34   62 1    
    63    9   41 1    
    64    9   42 1    
    65    9   43 1    
@<TRIPOS>SUBSTRUCTURE
     1 ****        6 TEMP              0 ****  ****    0 ROOT 
