#	Name:			FXQ-2010-BMC-2370-12I
#	Creating user name:	Administrator
#	Creation time:		Sun Jul 05 16:38:14 2020

#	Modifying user name:	Administrator
#	Modification time:	Sun Jul 05 16:40:47 2020

@<TRIPOS>MOLECULE
FXQ-2010-BMC-2370-12I
   37    39     1     0     0
SMALL
MULLIKEN_CHARGES
INVALID_CHARGES
Gaussian 16 #p B3LYP/6-31G* opt
@<TRIPOS>ATOM
      1 N           8.713880    1.031557   -0.568976 N.1       1 <1>        -0.484600 
      2 C           7.551799    1.017917   -0.499232 C.1       1 <1>         0.227400 
      3 C           6.123538    1.002664   -0.414557 C.ar      1 <1>         0.131300 
      4 C           5.438323   -0.180168   -0.091964 C.ar      1 <1>        -0.153200 
      5 C           4.051838   -0.209556   -0.007112 C.ar      1 <1>        -0.160200 
      6 C           3.311963    0.963283   -0.247259 C.ar      1 <1>         0.382700 
      7 N           1.920324    1.042683   -0.190786 N.pl3     1 <1>        -0.768300 
      8 C           0.945436    0.110683    0.098788 C.ar      1 <1>         0.695100 
      9 N           1.278733   -1.150398    0.398654 N.ar      1 <1>        -0.476600 
     10 C           0.248113   -1.965622    0.665181 C.ar      1 <1>         0.066800 
     11 C          -1.076863   -1.561025    0.639054 C.ar      1 <1>        -0.182900 
     12 C          -1.310110   -0.212576    0.313220 C.ar      1 <1>         0.304100 
     13 C          -2.688264    0.360750    0.267030 C.2       1 <1>         0.184900 
     14 N          -3.593464   -0.403386    0.780410 N.2       1 <1>        -0.229000 
     15 O          -4.873087    0.128974    0.716571 O.2       1 <1>        -0.479000 
     16 C          -2.924025    1.708128   -0.324305 C.ar      1 <1>         0.122500 
     17 C          -2.469315    2.005398   -1.616684 C.ar      1 <1>        -0.129600 
     18 C          -2.706928    3.259924   -2.174416 C.ar      1 <1>        -0.143300 
     19 C          -3.383729    4.242232   -1.450028 C.ar      1 <1>        -0.139900 
     20 C          -3.823130    3.940561   -0.162784 C.ar      1 <1>         0.071600 
     21 BR         -4.748725    5.276669    0.847505 Br        1 <1>        -0.127100 
     22 C          -3.609857    2.688919    0.405790 C.ar      1 <1>        -0.152600 
     23 N          -0.303177    0.619398    0.041012 N.ar      1 <1>        -0.567200 
     24 C           4.000189    2.150899   -0.570595 C.ar      1 <1>        -0.205700 
     25 C           5.382159    2.173477   -0.653617 C.ar      1 <1>        -0.140400 
     26 H           6.002912   -1.088360    0.094528 H         1 <1>         0.158300 
     27 H           3.532176   -1.123230    0.242313 H         1 <1>         0.189300 
     28 H           1.517852    1.950800   -0.385806 H         1 <1>         0.348800 
     29 H           0.510475   -2.994006    0.907005 H         1 <1>         0.156600 
     30 H          -1.892459   -2.237280    0.855387 H         1 <1>         0.166500 
     31 H          -5.408861   -0.567165    1.130676 H         1 <1>         0.427900 
     32 H          -1.931875    1.253309   -2.184229 H         1 <1>         0.143000 
     33 H          -2.359946    3.480566   -3.179992 H         1 <1>         0.144400 
     34 H          -3.567384    5.223068   -1.874686 H         1 <1>         0.157600 
     35 H          -3.973785    2.476506    1.403073 H         1 <1>         0.164900 
     36 H           3.437459    3.062674   -0.756871 H         1 <1>         0.137600 
     37 H           5.896879    3.095646   -0.903435 H         1 <1>         0.158200 
@<TRIPOS>BOND
     1   22   35 1    
     2   20   21 1    
     3   10   29 1    
     4    4   26 1    
     5   15   31 1    
     6   10    9 ar   
     7   11   10 ar   
     8    5   27 1    
     9    5    4 ar   
    10    4    3 ar   
    11   11   30 1    
    12    2    1 3    
    13    8    9 ar   
    14   14   15 1    
    15   13   14 2    
    16    6    5 ar   
    17   22   20 ar   
    18   16   22 ar   
    19   12   11 ar   
    20    3    2 1    
    21   25    3 ar   
    22    8    7 1    
    23   23    8 ar   
    24    7    6 1    
    25    6   24 ar   
    26   12   23 ar   
    27   13   12 1    
    28   24   25 ar   
    29   25   37 1    
    30    7   28 1    
    31   24   36 1    
    32   13   16 1    
    33   20   19 ar   
    34   16   17 ar   
    35   19   34 1    
    36   19   18 ar   
    37   17   18 ar   
    38   17   32 1    
    39   18   33 1    
@<TRIPOS>SUBSTRUCTURE
     1 ****        1 TEMP              0 ****  ****    0 ROOT 
