#	Name:			FXQ-2010-BMC-2370-12N
#	Creating user name:	Administrator
#	Creation time:		Sun Jul 05 16:38:14 2020

#	Modifying user name:	Administrator
#	Modification time:	Sun Jul 05 16:40:47 2020

@<TRIPOS>MOLECULE
FXQ-2010-BMC-2370-12N
   41    43     1     0     0
SMALL
MULLIKEN_CHARGES
INVALID_CHARGES
Gaussian 16 #p B3LYP/6-31G* opt
@<TRIPOS>ATOM
      1 C          -8.329400   -0.657390   -0.118780 C.3       1 <1>        -0.217200 
      2 O          -7.079005   -0.241127   -0.645053 O.3       1 <1>        -0.506100 
      3 C          -6.032392   -0.088572    0.216896 C.ar      1 <1>         0.375100 
      4 C          -6.095406   -0.323838    1.595412 C.ar      1 <1>        -0.190100 
      5 C          -4.949065   -0.136909    2.373484 C.ar      1 <1>        -0.141400 
      6 C          -3.750709    0.271033    1.798207 C.ar      1 <1>        -0.165800 
      7 C          -3.688706    0.516644    0.414187 C.ar      1 <1>         0.094200 
      8 C          -2.401391    0.954931   -0.198837 C.2       1 <1>         0.179600 
      9 N          -2.233556    1.973355   -0.973123 N.2       1 <1>        -0.200600 
     10 O          -3.403630    2.694750   -1.190103 O.2       1 <1>        -0.484000 
     11 C          -1.160363    0.164506    0.062143 C.ar      1 <1>         0.296700 
     12 C          -1.228612   -1.210388    0.346451 C.ar      1 <1>        -0.202100 
     13 C          -0.018750   -1.865209    0.537747 C.ar      1 <1>         0.069300 
     14 N           1.169029   -1.255043    0.467262 N.ar      1 <1>        -0.475700 
     15 C           1.119354    0.057501    0.191539 C.ar      1 <1>         0.692200 
     16 N           2.285238    0.790887    0.095357 N.pl3     1 <1>        -0.767900 
     17 C           3.629518    0.448853    0.231898 C.ar      1 <1>         0.383700 
     18 C           4.567482    1.488093    0.059251 C.ar      1 <1>        -0.205400 
     19 C           5.926275    1.249134    0.175720 C.ar      1 <1>        -0.140700 
     20 C           6.393973   -0.044058    0.470248 C.ar      1 <1>         0.130400 
     21 C           7.796519   -0.298720    0.592603 C.1       1 <1>         0.226400 
     22 N           8.938074   -0.504689    0.692054 N.1       1 <1>        -0.486500 
     23 C           5.460464   -1.079530    0.642023 C.ar      1 <1>        -0.153400 
     24 C           4.095894   -0.846383    0.526387 C.ar      1 <1>        -0.160600 
     25 N           0.014368    0.798192   -0.008001 N.ar      1 <1>        -0.535700 
     26 C          -4.831044    0.334700   -0.367355 C.ar      1 <1>        -0.191500 
     27 H          -9.009478   -0.709120   -0.970776 H         1 <1>         0.173600 
     28 H          -8.719377    0.062349    0.612946 H         1 <1>         0.154600 
     29 H          -8.261075   -1.647886    0.350556 H         1 <1>         0.152700 
     30 H          -7.016479   -0.647185    2.066481 H         1 <1>         0.136800 
     31 H          -5.000306   -0.316711    3.443857 H         1 <1>         0.137200 
     32 H          -2.867944    0.410873    2.414407 H         1 <1>         0.138900 
     33 H          -3.094447    3.407965   -1.771747 H         1 <1>         0.424700 
     34 H          -2.173045   -1.735752    0.404281 H         1 <1>         0.162000 
     35 H           0.007917   -2.931297    0.756308 H         1 <1>         0.154700 
     36 H           2.090843    1.760869   -0.120233 H         1 <1>         0.349200 
     37 H           4.217810    2.492383   -0.168829 H         1 <1>         0.137000 
     38 H           6.634383    2.060264    0.039970 H         1 <1>         0.156700 
     39 H           5.812479   -2.080922    0.869232 H         1 <1>         0.156700 
     40 H           3.384423   -1.648299    0.659504 H         1 <1>         0.188100 
     41 H          -4.814252    0.524242   -1.433940 H         1 <1>         0.154300 
@<TRIPOS>BOND
     1    1   27 1    
     2   26   41 1    
     3   13   35 1    
     4    2    1 1    
     5    3    2 1    
     6   12   34 1    
     7    1   29 1    
     8   13   12 ar   
     9   14   13 ar   
    10    1   28 1    
    11   23   39 1    
    12   11   12 ar   
    13   24   40 1    
    14   15   14 ar   
    15   26    3 ar   
    16    7   26 ar   
    17   24   23 ar   
    18   23   20 ar   
    19   17   24 ar   
    20   10   33 1    
    21    9   10 1    
    22    8    9 2    
    23   11    8 1    
    24   25   11 ar   
    25    3    4 ar   
    26   15   25 ar   
    27   16   15 1    
    28    8    7 1    
    29   21   22 3    
    30   20   21 1    
    31   20   19 ar   
    32   17   16 1    
    33   17   18 ar   
    34   16   36 1    
    35    7    6 ar   
    36   19   18 ar   
    37   19   38 1    
    38   18   37 1    
    39    4   30 1    
    40    4    5 ar   
    41    6    5 ar   
    42    6   32 1    
    43    5   31 1    
@<TRIPOS>SUBSTRUCTURE
     1 ****       22 TEMP              0 ****  ****    0 ROOT 
