#	Name:			FXQ-2010-BMC-2370-12D
#	Creating user name:	Administrator
#	Creation time:		Sun Jul 05 16:38:14 2020

#	Modifying user name:	Administrator
#	Modification time:	Sun Jul 05 16:40:47 2020

@<TRIPOS>MOLECULE
FXQ-2010-BMC-2370-12D
   37    39     1     0     0
SMALL
MULLIKEN_CHARGES
INVALID_CHARGES
Gaussian 16 #p B3LYP/6-31G* opt
@<TRIPOS>ATOM
      1 N           8.716570    1.017474   -0.580456 N.1       1 <1>        -0.485000 
      2 C           7.554595    1.005567   -0.510319 C.1       1 <1>         0.227200 
      3 C           6.126365    0.992552   -0.424715 C.ar      1 <1>         0.131100 
      4 C           5.386395    2.163806   -0.666340 C.ar      1 <1>        -0.140500 
      5 C           4.004396    2.143420   -0.581861 C.ar      1 <1>        -0.205800 
      6 C           3.314716    0.957772   -0.254516 C.ar      1 <1>         0.382800 
      7 N           1.923550    1.039290   -0.196062 N.pl3     1 <1>        -0.768300 
      8 C           0.947372    0.109239    0.097401 C.ar      1 <1>         0.694100 
      9 N           1.279346   -1.152131    0.396692 N.ar      1 <1>        -0.477000 
     10 C           0.247232   -1.965006    0.665541 C.ar      1 <1>         0.066200 
     11 C          -1.076727   -1.557346    0.642423 C.ar      1 <1>        -0.182200 
     12 C          -1.308931   -0.207963    0.318390 C.ar      1 <1>         0.299500 
     13 C          -2.688113    0.367376    0.279223 C.2       1 <1>         0.186000 
     14 N          -3.578261   -0.389719    0.830361 N.2       1 <1>        -0.234100 
     15 O          -4.865244    0.131334    0.777911 O.2       1 <1>        -0.482400 
     16 C          -2.933536    1.697489   -0.339311 C.ar      1 <1>         0.124600 
     17 C          -3.663804    2.685032    0.339863 C.ar      1 <1>        -0.135000 
     18 C          -3.892626    3.930577   -0.239816 C.ar      1 <1>        -0.208100 
     19 C          -3.396585    4.175107   -1.515084 C.ar      1 <1>         0.387800 
     20 F          -3.620658    5.376012   -2.084907 F         1 <1>        -0.293500 
     21 C          -2.674717    3.218972   -2.220616 C.ar      1 <1>        -0.210300 
     22 C          -2.438982    1.984314   -1.621559 C.ar      1 <1>        -0.137300 
     23 N          -0.300025    0.621075    0.043549 N.ar      1 <1>        -0.565600 
     24 C           4.053252   -0.215580   -0.012147 C.ar      1 <1>        -0.160300 
     25 C           5.439610   -0.188485   -0.098384 C.ar      1 <1>        -0.153300 
     26 H           5.902116    3.084496   -0.919203 H         1 <1>         0.158000 
     27 H           3.442822    3.055512   -0.770326 H         1 <1>         0.137500 
     28 H           1.521971    1.947717   -0.391824 H         1 <1>         0.348500 
     29 H           0.507863   -2.994092    0.906360 H         1 <1>         0.155800 
     30 H          -1.893289   -2.231865    0.860171 H         1 <1>         0.165700 
     31 H          -5.385771   -0.563181    1.213237 H         1 <1>         0.426100 
     32 H          -4.055565    2.477744    1.328952 H         1 <1>         0.153100 
     33 H          -4.449007    4.704760    0.277911 H         1 <1>         0.151300 
     34 H          -2.306823    3.448866   -3.215008 H         1 <1>         0.150500 
     35 H          -1.867409    1.234781   -2.158093 H         1 <1>         0.145600 
     36 H           3.532239   -1.127774    0.239921 H         1 <1>         0.189200 
     37 H           6.003037   -1.096990    0.089884 H         1 <1>         0.158000 
@<TRIPOS>BOND
     1   21   34 1    
     2   22   35 1    
     3   22   21 ar   
     4   21   19 ar   
     5   16   22 ar   
     6   10   29 1    
     7   11   30 1    
     8   10   11 ar   
     9    9   10 ar   
    10   12   11 ar   
    11   25   37 1    
    12   24   36 1    
    13    8    9 ar   
    14   19   20 1    
    15   19   18 ar   
    16   24   25 ar   
    17   25    3 ar   
    18    6   24 ar   
    19   23   12 ar   
    20   12   13 1    
    21    8   23 ar   
    22    7    8 1    
    23   13   16 1    
    24   16   17 ar   
    25   13   14 2    
    26    2    1 3    
    27    3    2 1    
    28    3    4 ar   
    29    6    7 1    
    30    6    5 ar   
    31    7   28 1    
    32   14   15 1    
    33    4    5 ar   
    34    4   26 1    
    35    5   27 1    
    36   15   31 1    
    37   18   17 ar   
    38   18   33 1    
    39   17   32 1    
@<TRIPOS>SUBSTRUCTURE
     1 ****        1 TEMP              0 ****  ****    0 ROOT 
