#	Name:			FXQ-2010-BMC-2370-12Q
#	Creating user name:	Administrator
#	Creation time:		Sun Jul 05 16:38:14 2020

#	Modifying user name:	Administrator
#	Modification time:	Sun Jul 05 16:40:47 2020

@<TRIPOS>MOLECULE
FXQ-2010-BMC-2370-12Q
   43    45     1     0     0
SMALL
MULLIKEN_CHARGES
INVALID_CHARGES
Gaussian 16 #p B3LYP/6-31G* opt
@<TRIPOS>ATOM
      1 C          -2.309153    3.444196   -3.686231 C.3       1 <1>        -0.530900 
      2 C          -2.736563    3.186246   -2.259275 C.ar      1 <1>         0.173800 
      3 C          -3.398762    4.177073   -1.522224 C.ar      1 <1>        -0.227900 
      4 C          -3.830733    3.956776   -0.210893 C.ar      1 <1>         0.174200 
      5 C          -4.514018    5.051139    0.577197 C.3       1 <1>        -0.530400 
      6 C          -3.599878    2.703349    0.366767 C.ar      1 <1>        -0.195100 
      7 C          -2.931869    1.698703   -0.341337 C.ar      1 <1>         0.138400 
      8 C          -2.687608    0.367225    0.279066 C.2       1 <1>         0.180800 
      9 N          -3.579510   -0.388874    0.827662 N.2       1 <1>        -0.234800 
     10 O          -4.865624    0.134898    0.772092 O.2       1 <1>        -0.480600 
     11 C          -1.309487   -0.208062    0.319749 C.ar      1 <1>         0.301600 
     12 C          -1.075970   -1.557729    0.643492 C.ar      1 <1>        -0.182500 
     13 C           0.247606   -1.965501    0.665794 C.ar      1 <1>         0.065600 
     14 N           1.279736   -1.152400    0.395743 N.ar      1 <1>        -0.478000 
     15 C           0.946206    0.108660    0.097496 C.ar      1 <1>         0.692500 
     16 N           1.921932    1.040139   -0.197606 N.pl3     1 <1>        -0.768500 
     17 C           3.312131    0.959830   -0.258918 C.ar      1 <1>         0.383300 
     18 C           4.000920    2.145212   -0.590262 C.ar      1 <1>        -0.205800 
     19 C           5.382614    2.166210   -0.677374 C.ar      1 <1>        -0.140700 
     20 C           6.124137    0.996012   -0.434558 C.ar      1 <1>         0.130600 
     21 C           7.552009    1.009978   -0.523019 C.1       1 <1>         0.226600 
     22 N           8.713950    1.023022   -0.595617 N.1       1 <1>        -0.486100 
     23 C           5.438482   -0.184733   -0.104303 C.ar      1 <1>        -0.153400 
     24 C           4.052375   -0.212493   -0.015391 C.ar      1 <1>        -0.160600 
     25 N          -0.300380    0.620986    0.045451 N.ar      1 <1>        -0.561900 
     26 C          -2.497715    1.952905   -1.650228 C.ar      1 <1>        -0.201500 
     27 H          -3.160013    3.370465   -4.376321 H         1 <1>         0.167600 
     28 H          -1.886455    4.448581   -3.803529 H         1 <1>         0.158200 
     29 H          -1.557038    2.720427   -4.016061 H         1 <1>         0.156600 
     30 H          -3.582209    5.146111   -1.983893 H         1 <1>         0.116700 
     31 H          -5.308985    4.648708    1.214481 H         1 <1>         0.160900 
     32 H          -4.958031    5.802816   -0.083515 H         1 <1>         0.156300 
     33 H          -3.804523    5.571249    1.234524 H         1 <1>         0.166200 
     34 H          -3.942796    2.506963    1.377812 H         1 <1>         0.132200 
     35 H          -5.387033   -0.558111    1.208580 H         1 <1>         0.423700 
     36 H          -1.892619   -2.232334    0.861356 H         1 <1>         0.164500 
     37 H           0.508515   -2.994547    0.906325 H         1 <1>         0.154100 
     38 H           1.517659    1.946959   -0.395432 H         1 <1>         0.348700 
     39 H           3.438294    3.056469   -0.779760 H         1 <1>         0.136600 
     40 H           5.897348    3.086696   -0.933261 H         1 <1>         0.156800 
     41 H           6.002840   -1.092416    0.084903 H         1 <1>         0.157300 
     42 H           3.532026   -1.124342    0.239498 H         1 <1>         0.189100 
     43 H          -1.972609    1.177651   -2.200657 H         1 <1>         0.125500 
@<TRIPOS>BOND
     1    1   27 1    
     2    1   29 1    
     3    1   28 1    
     4    2    1 1    
     5   26   43 1    
     6   26    2 ar   
     7    2    3 ar   
     8    7   26 ar   
     9   13   37 1    
    10   12   36 1    
    11   13   12 ar   
    12   14   13 ar   
    13   11   12 ar   
    14   15   14 ar   
    15   24   42 1    
    16    3   30 1    
    17   23   41 1    
    18    3    4 ar   
    19   11    8 1    
    20   25   11 ar   
    21    8    7 1    
    22    7    6 ar   
    23   24   23 ar   
    24   17   24 ar   
    25   15   25 ar   
    26   16   15 1    
    27   23   20 ar   
    28    8    9 2    
    29    9   10 1    
    30   16   17 1    
    31   16   38 1    
    32   17   18 ar   
    33   10   35 1    
    34   20   21 1    
    35   20   19 ar   
    36   21   22 3    
    37   18   19 ar   
    38   18   39 1    
    39   19   40 1    
    40    4    6 ar   
    41    4    5 1    
    42    6   34 1    
    43    5   32 1    
    44    5   31 1    
    45    5   33 1    
@<TRIPOS>SUBSTRUCTURE
     1 ****       27 TEMP              0 ****  ****    0 ROOT 
