#	Name:			FXQ-2010-BMC-2370-12G
#	Creating user name:	Administrator
#	Creation time:		Sun Jul 05 16:38:14 2020

#	Modifying user name:	Administrator
#	Modification time:	Sun Jul 05 16:40:47 2020

@<TRIPOS>MOLECULE
FXQ-2010-BMC-2370-12G
   37    39     1     0     0
SMALL
MULLIKEN_CHARGES
INVALID_CHARGES
Gaussian 16 #p B3LYP/6-31G* opt
@<TRIPOS>ATOM
      1 N           8.936050   -0.469417    0.726164 N.1       1 <1>        -0.485000 
      2 C           7.793973   -0.268758    0.622299 C.1       1 <1>         0.227200 
      3 C           6.390712   -0.020259    0.494434 C.ar      1 <1>         0.131100 
      4 C           5.918943    1.270244    0.194756 C.ar      1 <1>        -0.140400 
      5 C           4.559422    1.503111    0.072714 C.ar      1 <1>        -0.205300 
      6 C           3.625929    0.460195    0.244629 C.ar      1 <1>         0.383000 
      7 N           2.279869    0.797034    0.101765 N.pl3     1 <1>        -0.767500 
      8 C           1.117782    0.059763    0.194023 C.ar      1 <1>         0.693300 
      9 N           1.170559   -1.252414    0.472484 N.ar      1 <1>        -0.474100 
     10 C          -0.013875   -1.868122    0.538141 C.ar      1 <1>         0.070700 
     11 C          -1.226334   -1.218972    0.339836 C.ar      1 <1>        -0.203900 
     12 C          -1.161651    0.155443    0.054022 C.ar      1 <1>         0.292100 
     13 C          -2.404007    0.942595   -0.217014 C.2       1 <1>         0.180600 
     14 N          -2.241133    1.925566   -1.037280 N.2       1 <1>        -0.197800 
     15 O          -3.408519    2.649089   -1.265469 O.2       1 <1>        -0.487800 
     16 C          -3.681352    0.541472    0.435988 C.ar      1 <1>         0.099900 
     17 C          -4.873661    0.410711   -0.293489 C.ar      1 <1>        -0.135600 
     18 C          -6.055583    0.023008    0.332599 C.ar      1 <1>        -0.139100 
     19 C          -6.052085   -0.225040    1.705260 C.ar      1 <1>        -0.060300 
     20 CL         -7.541856   -0.707343    2.500119 Cl        1 <1>        -0.012100 
     21 C          -4.884288   -0.097803    2.455784 C.ar      1 <1>        -0.135100 
     22 C          -3.705483    0.277342    1.814569 C.ar      1 <1>        -0.160900 
     23 N           0.009176    0.795224   -0.011398 N.ar      1 <1>        -0.533200 
     24 C           4.095994   -0.832081    0.544428 C.ar      1 <1>        -0.160300 
     25 C           5.461196   -1.059223    0.665617 C.ar      1 <1>        -0.153100 
     26 H           6.624177    2.083898    0.059450 H         1 <1>         0.157900 
     27 H           4.206426    2.505248   -0.159286 H         1 <1>         0.137700 
     28 H           2.083423    1.765902   -0.116966 H         1 <1>         0.349800 
     29 H           0.016604   -2.933907    0.758027 H         1 <1>         0.157400 
     30 H          -2.167989   -1.750509    0.391156 H         1 <1>         0.160400 
     31 H          -3.101750    3.338970   -1.875887 H         1 <1>         0.427300 
     32 H          -4.877603    0.615692   -1.357541 H         1 <1>         0.159400 
     33 H          -6.972589   -0.083611   -0.236881 H         1 <1>         0.161800 
     34 H          -4.897301   -0.290353    3.523129 H         1 <1>         0.162200 
     35 H          -2.794662    0.374412    2.398045 H         1 <1>         0.153400 
     36 H           3.387827   -1.636941    0.677343 H         1 <1>         0.188300 
     37 H           5.816564   -2.058462    0.896940 H         1 <1>         0.157900 
@<TRIPOS>BOND
     1   21   34 1    
     2   22   35 1    
     3    4   26 1    
     4    5   27 1    
     5   22   21 ar   
     6   21   19 ar   
     7   16   22 ar   
     8    5    4 ar   
     9    4    3 ar   
    10    6    5 ar   
    11    7   28 1    
    12   19   20 1    
    13   19   18 ar   
    14    2    1 3    
    15    3    2 1    
    16    3   25 ar   
    17    7    6 1    
    18    8    7 1    
    19    6   24 ar   
    20   23    8 ar   
    21   12   23 ar   
    22   13   16 1    
    23   16   17 ar   
    24   15   31 1    
    25   14   15 1    
    26   13   14 2    
    27   13   12 1    
    28    8    9 ar   
    29   25   24 ar   
    30   25   37 1    
    31   24   36 1    
    32   12   11 ar   
    33   18   17 ar   
    34   18   33 1    
    35   17   32 1    
    36    9   10 ar   
    37   11   10 ar   
    38   11   30 1    
    39   10   29 1    
@<TRIPOS>SUBSTRUCTURE
     1 ****       34 TEMP              0 ****  ****    0 ROOT 
