#	Name:			FXQ-2010-BMC-2370-12A
#	Creating user name:	Administrator
#	Creation time:		Sun Jul 05 16:38:14 2020

#	Modifying user name:	Administrator
#	Modification time:	Sun Jul 05 16:40:47 2020

@<TRIPOS>MOLECULE
FXQ-2010-BMC-2370-12A
   37    39     1     0     0
SMALL
MULLIKEN_CHARGES
INVALID_CHARGES
Gaussian 16 #p B3LYP/6-31G* opt
@<TRIPOS>ATOM
      1 N           8.937147   -0.713951   -0.114813 N.1       1 <1>        -0.486200 
      2 C           7.797085   -0.477863   -0.099907 C.1       1 <1>         0.226700 
      3 C           6.396333   -0.187073   -0.082251 C.ar      1 <1>         0.130700 
      4 C           5.936537    1.124340   -0.298238 C.ar      1 <1>        -0.140700 
      5 C           4.579255    1.397838   -0.280141 C.ar      1 <1>        -0.205400 
      6 C           3.635643    0.375821   -0.046721 C.ar      1 <1>         0.383200 
      7 N           2.293196    0.752531   -0.049634 N.pl3     1 <1>        -0.768000 
      8 C           1.123835    0.045653    0.140808 C.ar      1 <1>         0.693600 
      9 N           1.165137   -1.274467    0.387122 N.ar      1 <1>        -0.475100 
     10 C          -0.025751   -1.855658    0.558803 C.ar      1 <1>         0.071000 
     11 C          -1.231908   -1.168799    0.490884 C.ar      1 <1>        -0.213200 
     12 C          -1.154626    0.209496    0.224332 C.ar      1 <1>         0.319900 
     13 C          -2.385641    1.044273    0.149368 C.2       1 <1>         0.170500 
     14 N          -2.217830    2.321973    0.264340 N.2       1 <1>        -0.133200 
     15 O          -3.323779    3.122625    0.178229 O.2       1 <1>        -0.479400 
     16 C          -3.718133    0.386938   -0.036691 C.ar      1 <1>        -0.005300 
     17 C          -4.696908    0.460315    0.969932 C.ar      1 <1>        -0.173200 
     18 C          -5.943620   -0.142071    0.789812 C.ar      1 <1>        -0.127700 
     19 C          -6.227876   -0.820630   -0.395868 C.ar      1 <1>        -0.121100 
     20 C          -5.262720   -0.896771   -1.403329 C.ar      1 <1>        -0.132200 
     21 C          -4.016713   -0.296997   -1.226657 C.ar      1 <1>        -0.142900 
     22 N           0.024057    0.812056    0.042856 N.ar      1 <1>        -0.537700 
     23 C           4.093972   -0.937353    0.170136 C.ar      1 <1>        -0.160500 
     24 C           5.456979   -1.205041    0.150641 C.ar      1 <1>        -0.153400 
     25 H           6.649273    1.922349   -0.479277 H         1 <1>         0.157500 
     26 H           4.235566    2.415745   -0.448150 H         1 <1>         0.139500 
     27 H           2.104592    1.733163   -0.218173 H         1 <1>         0.352500 
     28 H          -0.006916   -2.925009    0.762764 H         1 <1>         0.154700 
     29 H          -2.177196   -1.673114    0.644557 H         1 <1>         0.157200 
     30 H          -4.113308    2.568986   -0.015311 H         1 <1>         0.397000 
     31 H          -4.471196    0.977604    1.898942 H         1 <1>         0.161600 
     32 H          -6.688735   -0.083250    1.578115 H         1 <1>         0.148200 
     33 H          -7.197901   -1.289561   -0.535369 H         1 <1>         0.146300 
     34 H          -5.481248   -1.422612   -2.328603 H         1 <1>         0.147400 
     35 H          -3.267772   -0.355325   -2.011654 H         1 <1>         0.153400 
     36 H           3.378092   -1.726020    0.350450 H         1 <1>         0.187400 
     37 H           5.803078   -2.220139    0.318699 H         1 <1>         0.156600 
@<TRIPOS>BOND
     1   20   34 1    
     2   21   35 1    
     3   21   20 ar   
     4   20   19 ar   
     5   16   21 ar   
     6   19   33 1    
     7    4   25 1    
     8    5   26 1    
     9   19   18 ar   
    10    5    4 ar   
    11    4    3 ar   
    12    6    5 ar   
    13    7   27 1    
    14    2    1 3    
    15    3    2 1    
    16    3   24 ar   
    17   15   30 1    
    18    7    6 1    
    19    8    7 1    
    20    6   23 ar   
    21   13   16 1    
    22   16   17 ar   
    23   22    8 ar   
    24   12   22 ar   
    25   14   15 1    
    26   13   14 2    
    27   13   12 1    
    28    8    9 ar   
    29   24   23 ar   
    30   24   37 1    
    31   23   36 1    
    32   12   11 ar   
    33    9   10 ar   
    34   11   10 ar   
    35   11   29 1    
    36   10   28 1    
    37   18   17 ar   
    38   18   32 1    
    39   17   31 1    
@<TRIPOS>SUBSTRUCTURE
     1 ****       34 TEMP              0 ****  ****    0 ROOT 
