#	Name:			FXQ-2010-BMC-2370-12L
#	Creating user name:	Administrator
#	Creation time:		Sun Jul 05 16:38:14 2020

#	Modifying user name:	Administrator
#	Modification time:	Sun Jul 05 16:40:47 2020

@<TRIPOS>MOLECULE
FXQ-2010-BMC-2370-12L
   40    42     1     0     0
SMALL
MULLIKEN_CHARGES
INVALID_CHARGES
Gaussian 16 #p B3LYP/6-31G* opt
@<TRIPOS>ATOM
      1 C          -4.689669    4.281444   -2.327040 C.3       1 <1>        -0.529400 
      2 C          -3.880986    3.705200   -1.187417 C.ar      1 <1>         0.167300 
      3 C          -3.361223    4.534263   -0.184314 C.ar      1 <1>        -0.170100 
      4 C          -2.635072    3.999004    0.879141 C.ar      1 <1>        -0.140200 
      5 C          -2.406185    2.626662    0.953639 C.ar      1 <1>        -0.143200 
      6 C          -2.922494    1.777231   -0.034248 C.ar      1 <1>         0.132500 
      7 C          -2.694511    0.308011    0.045725 C.2       1 <1>         0.182200 
      8 N          -3.605589   -0.605030   -0.022125 N.2       1 <1>        -0.234000 
      9 O          -4.893627   -0.099787   -0.151206 O.2       1 <1>        -0.480700 
     10 C          -1.312694   -0.236682    0.208089 C.ar      1 <1>         0.301000 
     11 C          -1.078569   -1.582390    0.547284 C.ar      1 <1>        -0.182300 
     12 C           0.247410   -1.969641    0.649347 C.ar      1 <1>         0.065800 
     13 N           1.281316   -1.138889    0.448616 N.ar      1 <1>        -0.477700 
     14 C           0.947269    0.118169    0.134512 C.ar      1 <1>         0.693000 
     15 N           1.924298    1.065765   -0.096378 N.pl3     1 <1>        -0.768500 
     16 C           3.316885    1.005826   -0.077895 C.ar      1 <1>         0.383200 
     17 C           4.006019    2.198698   -0.380331 C.ar      1 <1>        -0.205700 
     18 C           5.389957    2.240423   -0.386554 C.ar      1 <1>        -0.140700 
     19 C           6.133321    1.084336   -0.088939 C.ar      1 <1>         0.130700 
     20 C           7.563611    1.119894   -0.093230 C.1       1 <1>         0.226700 
     21 N           8.727441    1.150476   -0.096843 N.1       1 <1>        -0.485900 
     22 C           5.447372   -0.104006    0.212170 C.ar      1 <1>        -0.153400 
     23 C           4.059111   -0.152558    0.220297 C.ar      1 <1>        -0.160500 
     24 N          -0.301858    0.610447    0.004901 N.ar      1 <1>        -0.562900 
     25 C          -3.655791    2.328468   -1.094339 C.ar      1 <1>        -0.190800 
     26 H          -4.706830    3.605616   -3.188186 H         1 <1>         0.158100 
     27 H          -4.284833    5.243582   -2.659953 H         1 <1>         0.158700 
     28 H          -5.731584    4.455116   -2.026799 H         1 <1>         0.168300 
     29 H          -3.525946    5.608236   -0.239001 H         1 <1>         0.125400 
     30 H          -2.238082    4.655065    1.649245 H         1 <1>         0.131800 
     31 H          -1.828381    2.214532    1.774629 H         1 <1>         0.133800 
     32 H          -5.429529   -0.909176   -0.171199 H         1 <1>         0.424300 
     33 H          -1.896260   -2.269346    0.717164 H         1 <1>         0.164700 
     34 H           0.509123   -2.993854    0.908834 H         1 <1>         0.154500 
     35 H           1.519169    1.964221   -0.328002 H         1 <1>         0.349000 
     36 H           3.441714    3.098986   -0.612494 H         1 <1>         0.137000 
     37 H           5.904793    3.166436   -0.621606 H         1 <1>         0.157000 
     38 H           6.013275   -1.001099    0.442958 H         1 <1>         0.157400 
     39 H           3.538518   -1.070402    0.452549 H         1 <1>         0.189100 
     40 H          -4.056722    1.671145   -1.859438 H         1 <1>         0.134500 
@<TRIPOS>BOND
     1    4   30 1    
     2    5   31 1    
     3    5    4 ar   
     4    4    3 ar   
     5    6    5 ar   
     6    3   29 1    
     7    3    2 ar   
     8    7    6 1    
     9    6   25 ar   
    10   11   33 1    
    11   12   34 1    
    12   12   11 ar   
    13   10   11 ar   
    14   13   12 ar   
    15   10    7 1    
    16   24   10 ar   
    17   14   13 ar   
    18    7    8 2    
    19   23   39 1    
    20   14   24 ar   
    21   15   14 1    
    22   22   38 1    
    23   23   22 ar   
    24   16   23 ar   
    25   15   16 1    
    26   15   35 1    
    27   22   19 ar   
    28   16   17 ar   
    29   19   20 1    
    30   19   18 ar   
    31   17   18 ar   
    32   17   36 1    
    33   20   21 3    
    34   18   37 1    
    35    8    9 1    
    36    9   32 1    
    37    2   25 ar   
    38    2    1 1    
    39   25   40 1    
    40    1   28 1    
    41    1   27 1    
    42    1   26 1    
@<TRIPOS>SUBSTRUCTURE
     1 ****       33 TEMP              0 ****  ****    0 ROOT 
