#	Name:			FXQ-2010-BMC-2370-12F
#	Creating user name:	Administrator
#	Creation time:		Sun Jul 05 16:38:14 2020

#	Modifying user name:	Administrator
#	Modification time:	Sun Jul 05 16:40:47 2020

@<TRIPOS>MOLECULE
FXQ-2010-BMC-2370-12F
   37    39     1     0     0
SMALL
MULLIKEN_CHARGES
INVALID_CHARGES
Gaussian 16 #p B3LYP/6-31G* opt
@<TRIPOS>ATOM
      1 N           8.715084    1.057121   -0.509454 N.1       1 <1>        -0.484900 
      2 C           7.552462    1.039525   -0.449943 C.1       1 <1>         0.227400 
      3 C           6.123701    1.019461   -0.376768 C.ar      1 <1>         0.131300 
      4 C           5.379213    2.182331   -0.643491 C.ar      1 <1>        -0.140400 
      5 C           3.996676    2.155365   -0.570173 C.ar      1 <1>        -0.205500 
      6 C           3.311280    0.971171   -0.229344 C.ar      1 <1>         0.382500 
      7 N           1.918998    1.046705   -0.180877 N.pl3     1 <1>        -0.768300 
      8 C           0.945635    0.112430    0.104538 C.ar      1 <1>         0.696500 
      9 N           1.280519   -1.146937    0.409675 N.ar      1 <1>        -0.476600 
     10 C           0.250089   -1.966223    0.664047 C.ar      1 <1>         0.067100 
     11 C          -1.076268   -1.567634    0.622136 C.ar      1 <1>        -0.183000 
     12 C          -1.311398   -0.219116    0.296946 C.ar      1 <1>         0.306900 
     13 C          -2.691750    0.349017    0.236575 C.2       1 <1>         0.186000 
     14 N          -3.607734   -0.446501    0.678299 N.2       1 <1>        -0.231400 
     15 O          -4.889361    0.080087    0.601216 O.2       1 <1>        -0.479900 
     16 C          -2.921102    1.727057   -0.283138 C.ar      1 <1>         0.123100 
     17 C          -3.635112    2.667241    0.472630 C.ar      1 <1>        -0.127500 
     18 C          -3.841516    3.953699   -0.021586 C.ar      1 <1>        -0.139100 
     19 C          -3.354054    4.320982   -1.276132 C.ar      1 <1>        -0.121900 
     20 C          -2.650311    3.377253   -2.022867 C.ar      1 <1>        -0.080200 
     21 CL         -2.023827    3.822099   -3.606844 Cl        1 <1>        -0.023200 
     22 C          -2.422015    2.091790   -1.541425 C.ar      1 <1>        -0.132700 
     23 N          -0.304555    0.616723    0.037945 N.ar      1 <1>        -0.570600 
     24 C           4.054138   -0.193949    0.037528 C.ar      1 <1>        -0.160000 
     25 C           5.441022   -0.160238   -0.037736 C.ar      1 <1>        -0.153200 
     26 H           5.891709    3.101693   -0.907419 H         1 <1>         0.158300 
     27 H           3.431509    3.060747   -0.779203 H         1 <1>         0.139300 
     28 H           1.514769    1.950387   -0.392731 H         1 <1>         0.350000 
     29 H           0.513785   -2.993319    0.909747 H         1 <1>         0.156400 
     30 H          -1.891141   -2.247929    0.827673 H         1 <1>         0.166500 
     31 H          -5.432500   -0.645884    0.949032 H         1 <1>         0.427400 
     32 H          -4.027365    2.388926    1.444076 H         1 <1>         0.148900 
     33 H          -4.390466    4.679132    0.571877 H         1 <1>         0.144900 
     34 H          -3.514535    5.318803   -1.670144 H         1 <1>         0.158500 
     35 H          -1.860970    1.383271   -2.138666 H         1 <1>         0.160500 
     36 H           3.536375   -1.105447    0.298766 H         1 <1>         0.189000 
     37 H           6.008023   -1.062404    0.169494 H         1 <1>         0.158000 
@<TRIPOS>BOND
     1   22   35 1    
     2   20   21 1    
     3   10   29 1    
     4   11   30 1    
     5   10   11 ar   
     6    9   10 ar   
     7   12   11 ar   
     8   22   20 ar   
     9   16   22 ar   
    10    8    9 ar   
    11   24   36 1    
    12   25   37 1    
    13   20   19 ar   
    14   24   25 ar   
    15    6   24 ar   
    16   25    3 ar   
    17   12   13 1    
    18   23   12 ar   
    19    8   23 ar   
    20    7    8 1    
    21   13   14 2    
    22   14   15 1    
    23   15   31 1    
    24   13   16 1    
    25    2    1 3    
    26    3    2 1    
    27    6    7 1    
    28    6    5 ar   
    29    3    4 ar   
    30    7   28 1    
    31   16   17 ar   
    32    5    4 ar   
    33    5   27 1    
    34    4   26 1    
    35   19   34 1    
    36   19   18 ar   
    37   17   18 ar   
    38   17   32 1    
    39   18   33 1    
@<TRIPOS>SUBSTRUCTURE
     1 ****        2 TEMP              0 ****  ****    0 ROOT 
