#	Name:			FXQ-2010-BMC-2370-12P
#	Creating user name:	Administrator
#	Creation time:		Sun Jul 05 16:38:14 2020

#	Modifying user name:	Administrator
#	Modification time:	Sun Jul 05 16:40:47 2020

@<TRIPOS>MOLECULE
FXQ-2010-BMC-2370-12P
   49    51     1     0     0
SMALL
MULLIKEN_CHARGES
INVALID_CHARGES
Gaussian 16 #p B3LYP/6-31G* opt
@<TRIPOS>ATOM
      1 C          -7.284198   -0.927015    3.879479 C.3       1 <1>        -0.458200 
      2 C          -7.427496   -0.683796    2.365203 C.3       1 <1>         0.014000 
      3 C          -8.483101    0.427781    2.152878 C.3       1 <1>        -0.439700 
      4 C          -7.925172   -1.994922    1.710861 C.3       1 <1>        -0.439600 
      5 C          -6.100789   -0.258672    1.712055 C.ar      1 <1>         0.187400 
      6 C          -6.049343    0.007649    0.331979 C.ar      1 <1>        -0.197500 
      7 C          -4.874955    0.402822   -0.298117 C.ar      1 <1>        -0.143400 
      8 C          -3.682647    0.537004    0.431627 C.ar      1 <1>         0.102100 
      9 C          -2.404746    0.944601   -0.213892 C.2       1 <1>         0.180200 
     10 N          -2.236677    1.930563   -1.029899 N.2       1 <1>        -0.203400 
     11 O          -3.403528    2.657203   -1.258958 O.2       1 <1>        -0.487800 
     12 C          -1.161822    0.157887    0.055857 C.ar      1 <1>         0.292900 
     13 C          -1.226289   -1.217046    0.341716 C.ar      1 <1>        -0.201900 
     14 C          -0.015046   -1.867560    0.537931 C.ar      1 <1>         0.069400 
     15 N           1.170978   -1.253217    0.470973 N.ar      1 <1>        -0.475700 
     16 C           1.117908    0.058691    0.193585 C.ar      1 <1>         0.692100 
     17 N           2.281248    0.796151    0.100604 N.pl3     1 <1>        -0.767800 
     18 C           3.626353    0.459099    0.242343 C.ar      1 <1>         0.383600 
     19 C           4.561142    1.501312    0.070665 C.ar      1 <1>        -0.205400 
     20 C           5.920396    1.267241    0.192046 C.ar      1 <1>        -0.140700 
     21 C           6.391612   -0.023854    0.490527 C.ar      1 <1>         0.130500 
     22 C           7.794543   -0.273506    0.617592 C.1       1 <1>         0.226500 
     23 N           8.936585   -0.475366    0.720962 N.1       1 <1>        -0.486400 
     24 C           5.461070   -1.062173    0.661303 C.ar      1 <1>        -0.153400 
     25 C           4.096009   -0.833938    0.540894 C.ar      1 <1>        -0.160600 
     26 N           0.010583    0.795512   -0.010554 N.ar      1 <1>        -0.533700 
     27 C          -3.719862    0.264266    1.805128 C.ar      1 <1>        -0.169300 
     28 C          -4.906783   -0.117332    2.431674 C.ar      1 <1>        -0.201600 
     29 H          -6.569400   -1.728312    4.099256 H         1 <1>         0.145800 
     30 H          -6.960682   -0.023938    4.409467 H         1 <1>         0.147800 
     31 H          -8.251937   -1.225474    4.297558 H         1 <1>         0.144700 
     32 H          -8.160031    1.368546    2.612661 H         1 <1>         0.150300 
     33 H          -9.437662    0.136603    2.607866 H         1 <1>         0.141700 
     34 H          -8.665796    0.620472    1.090617 H         1 <1>         0.144700 
     35 H          -8.089709   -1.877802    0.634614 H         1 <1>         0.144300 
     36 H          -7.200005   -2.804343    1.852522 H         1 <1>         0.147200 
     37 H          -8.875165   -2.307336    2.160950 H         1 <1>         0.142400 
     38 H          -6.948088   -0.091626   -0.270189 H         1 <1>         0.130900 
     39 H          -4.878927    0.610978   -1.361958 H         1 <1>         0.146600 
     40 H          -3.092832    3.346704   -1.867655 H         1 <1>         0.424400 
     41 H          -2.169355   -1.745471    0.396334 H         1 <1>         0.160800 
     42 H           0.014680   -2.933446    0.757474 H         1 <1>         0.154700 
     43 H           2.084166    1.765165   -0.116778 H         1 <1>         0.349200 
     44 H           4.208819    2.503845   -0.160466 H         1 <1>         0.137000 
     45 H           6.626193    2.080386    0.056857 H         1 <1>         0.156800 
     46 H           5.815771   -2.061916    0.891708 H         1 <1>         0.156800 
     47 H           3.386916   -1.638082    0.673362 H         1 <1>         0.188100 
     48 H          -2.814103    0.360276    2.397769 H         1 <1>         0.140200 
     49 H          -4.885459   -0.305994    3.499058 H         1 <1>         0.132900 
@<TRIPOS>BOND
     1   14   42 1    
     2    4   35 1    
     3    7   39 1    
     4   13   41 1    
     5    4   36 1    
     6   13   14 ar   
     7   14   15 ar   
     8    6   38 1    
     9   12   13 ar   
    10    4   37 1    
    11    2    4 1    
    12   16   15 ar   
    13   25   47 1    
    14    6    7 ar   
    15    7    8 ar   
    16   24   46 1    
    17    5    6 ar   
    18    9   12 1    
    19   12   26 ar   
    20   25   24 ar   
    21   18   25 ar   
    22   24   21 ar   
    23   26   16 ar   
    24   16   17 1    
    25    9   10 2    
    26    8    9 1    
    27   10   11 1    
    28    8   27 ar   
    29   11   40 1    
    30    3   34 1    
    31   17   18 1    
    32   18   19 ar   
    33    2    5 1    
    34    5   28 ar   
    35   17   43 1    
    36   21   22 1    
    37   21   20 ar   
    38   22   23 3    
    39    2    3 1    
    40    2    1 1    
    41   27   28 ar   
    42   27   48 1    
    43   19   20 ar   
    44   19   44 1    
    45    3   33 1    
    46    3   32 1    
    47   20   45 1    
    48   28   49 1    
    49    1   29 1    
    50    1   31 1    
    51    1   30 1    
@<TRIPOS>SUBSTRUCTURE
     1 ****       47 TEMP              0 ****  ****    0 ROOT 
