#	Name:			FXQ-2010-BMC-2370-12K
#	Creating user name:	Administrator
#	Creation time:		Sun Jul 05 16:38:14 2020

#	Modifying user name:	Administrator
#	Modification time:	Sun Jul 05 16:40:47 2020

@<TRIPOS>MOLECULE
FXQ-2010-BMC-2370-12K
   40    42     1     0     0
SMALL
MULLIKEN_CHARGES
INVALID_CHARGES
Gaussian 16 #p B3LYP/6-31G* opt
@<TRIPOS>ATOM
      1 C          -4.401736    0.127690   -2.134506 C.3       1 <1>        -0.536100 
      2 C          -4.668551    0.018899   -0.651955 C.ar      1 <1>         0.173500 
      3 C          -5.882186   -0.502711   -0.188212 C.ar      1 <1>        -0.195900 
      4 C          -6.161239   -0.606654    1.174761 C.ar      1 <1>        -0.115400 
      5 C          -5.215008   -0.192288    2.110942 C.ar      1 <1>        -0.137900 
      6 C          -3.996036    0.321053    1.670415 C.ar      1 <1>        -0.152900 
      7 C          -3.716830    0.437177    0.302058 C.ar      1 <1>         0.031900 
      8 C          -2.391795    0.998961   -0.108415 C.2       1 <1>         0.168100 
      9 N          -2.216193    2.159777   -0.641100 N.2       1 <1>        -0.200400 
     10 O          -3.411421    2.857147   -0.795528 O.2       1 <1>        -0.481000 
     11 C          -1.154697    0.191560    0.102905 C.ar      1 <1>         0.317500 
     12 C          -1.235549   -1.183783    0.380134 C.ar      1 <1>        -0.210600 
     13 C          -0.029822   -1.856759    0.539653 C.ar      1 <1>         0.070300 
     14 N           1.163809   -1.263918    0.444946 N.ar      1 <1>        -0.474800 
     15 C           1.126075    0.052363    0.178765 C.ar      1 <1>         0.693600 
     16 N           2.300469    0.768456    0.060614 N.pl3     1 <1>        -0.768200 
     17 C           3.642577    0.405829    0.164950 C.ar      1 <1>         0.383700 
     18 C           4.591112    1.433111   -0.020638 C.ar      1 <1>        -0.205500 
     19 C           5.948729    1.174064    0.063508 C.ar      1 <1>        -0.140600 
     20 C           6.404192   -0.128069    0.337275 C.ar      1 <1>         0.130600 
     21 C           7.805355   -0.403622    0.425798 C.1       1 <1>         0.226600 
     22 N           8.945858   -0.626457    0.497462 N.1       1 <1>        -0.486100 
     23 C           5.460019   -1.151524    0.521974 C.ar      1 <1>        -0.153300 
     24 C           4.096667   -0.898178    0.438864 C.ar      1 <1>        -0.160600 
     25 N           0.028507    0.807966    0.007186 N.ar      1 <1>        -0.544400 
     26 H          -4.361278    1.178224   -2.442992 H         1 <1>         0.181400 
     27 H          -5.187941   -0.368878   -2.711041 H         1 <1>         0.153800 
     28 H          -3.443112   -0.327182   -2.410723 H         1 <1>         0.160300 
     29 H          -6.621766   -0.832712   -0.913902 H         1 <1>         0.128800 
     30 H          -7.114126   -1.013866    1.502052 H         1 <1>         0.134300 
     31 H          -5.420289   -0.268391    3.175001 H         1 <1>         0.135200 
     32 H          -3.251138    0.644244    2.393023 H         1 <1>         0.140400 
     33 H          -3.110878    3.686762   -1.200986 H         1 <1>         0.425500 
     34 H          -2.185087   -1.696016    0.463366 H         1 <1>         0.164300 
     35 H          -0.014049   -2.924126    0.753424 H         1 <1>         0.155600 
     36 H           2.115926    1.743152   -0.141577 H         1 <1>         0.349200 
     37 H           4.250957    2.444000   -0.232731 H         1 <1>         0.137000 
     38 H           6.665109    1.976032   -0.081759 H         1 <1>         0.157000 
     39 H           5.802592   -2.159547    0.733540 H         1 <1>         0.157000 
     40 H           3.377058   -1.691072    0.582072 H         1 <1>         0.188100 
@<TRIPOS>BOND
     1    5   31 1    
     2    6   32 1    
     3    6    5 ar   
     4    5    4 ar   
     5    7    6 ar   
     6    4   30 1    
     7   18   37 1    
     8   19   38 1    
     9    4    3 ar   
    10   16   36 1    
    11   18   19 ar   
    12   17   18 ar   
    13   10   33 1    
    14   19   20 ar   
    15    9   10 1    
    16    8    7 1    
    17    7    2 ar   
    18   16   17 1    
    19   15   16 1    
    20    8    9 2    
    21   25   15 ar   
    22   11   25 ar   
    23    8   11 1    
    24   17   24 ar   
    25   20   21 1    
    26   20   23 ar   
    27   21   22 3    
    28   15   14 ar   
    29   11   12 ar   
    30   24   23 ar   
    31   24   40 1    
    32   23   39 1    
    33   14   13 ar   
    34   12   34 1    
    35   12   13 ar   
    36   13   35 1    
    37    3    2 ar   
    38    3   29 1    
    39    2    1 1    
    40    1   26 1    
    41    1   28 1    
    42    1   27 1    
@<TRIPOS>SUBSTRUCTURE
     1 ****       33 TEMP              0 ****  ****    0 ROOT 
