#	Name:			FXQ-2010-BMC-2370-12S
#	Creating user name:	Administrator
#	Creation time:		Sun Jul 05 16:38:15 2020

#	Modifying user name:	Administrator
#	Modification time:	Sun Jul 05 16:40:47 2020

@<TRIPOS>MOLECULE
FXQ-2010-BMC-2370-12S
   43    46     1     0     0
SMALL
MULLIKEN_CHARGES
INVALID_CHARGES
Gaussian 16 #p B3LYP/6-31G* opt
@<TRIPOS>ATOM
      1 N           8.716436    1.022260   -0.584472 N.1       1 <1>        -0.485800 
      2 C           7.554444    1.009546   -0.513054 C.1       1 <1>         0.226800 
      3 C           6.126450    0.995715   -0.425980 C.ar      1 <1>         0.130800 
      4 C           5.440573   -0.184995   -0.096548 C.ar      1 <1>        -0.153400 
      5 C           4.054306   -0.212753   -0.009111 C.ar      1 <1>        -0.160500 
      6 C           3.314601    0.959490   -0.253579 C.ar      1 <1>         0.382900 
      7 N           1.923898    1.040184   -0.194093 N.pl3     1 <1>        -0.768500 
      8 C           0.947951    0.108893    0.098519 C.ar      1 <1>         0.693100 
      9 N           1.280445   -1.152249    0.398175 N.ar      1 <1>        -0.477500 
     10 C           0.247764   -1.965294    0.665325 C.ar      1 <1>         0.066000 
     11 C          -1.076012   -1.557834    0.639740 C.ar      1 <1>        -0.182700 
     12 C          -1.308538   -0.208077    0.315635 C.ar      1 <1>         0.301900 
     13 C          -2.688481    0.364621    0.272975 C.2       1 <1>         0.184300 
     14 N          -3.581957   -0.397194    0.812005 N.2       1 <1>        -0.234700 
     15 O          -4.868018    0.125084    0.745394 O.2       1 <1>        -0.481100 
     16 C          -2.937870    1.700960   -0.331910 C.ar      1 <1>         0.125600 
     17 C          -3.655619    2.696479    0.390868 C.ar      1 <1>        -0.136700 
     18 C          -3.886267    3.932904   -0.161446 C.ar      1 <1>        -0.205300 
     19 C          -3.432890    4.249715   -1.470278 C.ar      1 <1>         0.143800 
     20 C          -3.662418    5.514521   -2.073695 C.ar      1 <1>        -0.192800 
     21 C          -3.206529    5.781591   -3.345336 C.ar      1 <1>        -0.133000 
     22 C          -2.497855    4.794368   -4.074317 C.ar      1 <1>        -0.137700 
     23 C          -2.258135    3.559099   -3.516516 C.ar      1 <1>        -0.188400 
     24 C          -2.715250    3.251899   -2.205951 C.ar      1 <1>         0.127000 
     25 C          -2.476940    1.991045   -1.602486 C.ar      1 <1>        -0.215200 
     26 N          -0.298992    0.620819    0.043481 N.ar      1 <1>        -0.563600 
     27 C           4.003454    2.144944   -0.584069 C.ar      1 <1>        -0.206000 
     28 C           5.385303    2.165901   -0.669587 C.ar      1 <1>        -0.140700 
     29 H           6.004744   -1.092727    0.093368 H         1 <1>         0.157500 
     30 H           3.534015   -1.124710    0.245321 H         1 <1>         0.189000 
     31 H           1.520770    1.947547   -0.392027 H         1 <1>         0.349400 
     32 H           0.508011   -2.994347    0.906539 H         1 <1>         0.154900 
     33 H          -1.892843   -2.232811    0.855080 H         1 <1>         0.165200 
     34 H          -5.393334   -0.564488    1.182769 H         1 <1>         0.425300 
     35 H          -4.017888    2.468572    1.386863 H         1 <1>         0.142000 
     36 H          -4.427559    4.688536    0.402750 H         1 <1>         0.133400 
     37 H          -4.206801    6.270817   -1.513135 H         1 <1>         0.132900 
     38 H          -3.389565    6.753155   -3.796348 H         1 <1>         0.133800 
     39 H          -2.144578    5.017594   -5.077288 H         1 <1>         0.133600 
     40 H          -1.715007    2.798737   -4.072890 H         1 <1>         0.132800 
     41 H          -1.918733    1.245965   -2.161716 H         1 <1>         0.136600 
     42 H           3.441042    3.056175   -0.774336 H         1 <1>         0.138000 
     43 H           5.900205    3.086437   -0.924967 H         1 <1>         0.157300 
@<TRIPOS>BOND
     1   18   36 1    
     2   17   35 1    
     3   20   37 1    
     4   17   18 ar   
     5   18   19 ar   
     6   16   17 ar   
     7   28   43 1    
     8   27   42 1    
     9   19   20 ar   
    10   20   21 ar   
    11   27   28 ar   
    12   28    3 ar   
    13    6   27 ar   
    14   19   24 ar   
    15    7   31 1    
    16   15   34 1    
    17   14   15 1    
    18   13   16 1    
    19   16   25 ar   
    20    7    6 1    
    21    8    7 1    
    22    3    2 1    
    23    3    4 ar   
    24    2    1 3    
    25    6    5 ar   
    26   26    8 ar   
    27   12   26 ar   
    28   13   14 2    
    29   13   12 1    
    30    8    9 ar   
    31   21   38 1    
    32   12   11 ar   
    33    4    5 ar   
    34    4   29 1    
    35    5   30 1    
    36   21   22 ar   
    37    9   10 ar   
    38   11   10 ar   
    39   11   33 1    
    40   24   25 ar   
    41   24   23 ar   
    42   10   32 1    
    43   25   41 1    
    44   22   23 ar   
    45   22   39 1    
    46   23   40 1    
@<TRIPOS>SUBSTRUCTURE
     1 ****       15 TEMP              0 ****  ****    0 ROOT 
