#	Name:			GSX-2011-BMC-5117-10w
#	Creating user name:	Administrator
#	Creation time:		Sun Jul 05 16:38:19 2020

#	Modifying user name:	Administrator
#	Modification time:	Sun Jul 05 16:40:47 2020

@<TRIPOS>MOLECULE
GSX-2011-BMC-5117-10w
   40    42     1     0     0
SMALL
MULLIKEN_CHARGES
INVALID_CHARGES
Gaussian 16 #p B3LYP/6-31G* opt
@<TRIPOS>ATOM
      1 C          -2.420742   -2.277390    0.330326 C.3       1 <1>        -0.545400 
      2 C          -1.200996   -1.396927    0.265454 C.ar      1 <1>         0.116000 
      3 C           0.065274   -1.907767    0.551071 C.ar      1 <1>         0.017300 
      4 N           1.198924   -1.197792    0.542285 N.ar      1 <1>        -0.471700 
      5 C           1.060529    0.093195    0.229309 C.ar      1 <1>         0.688400 
      6 N           2.156564    0.933256    0.193927 N.pl3     1 <1>        -0.766200 
      7 C           3.512186    0.719784    0.439497 C.ar      1 <1>         0.383100 
      8 C           4.067340   -0.520616    0.806390 C.ar      1 <1>        -0.161300 
      9 C           5.434496   -0.626177    1.029218 C.ar      1 <1>        -0.153200 
     10 C           6.282717    0.485429    0.895666 C.ar      1 <1>         0.130700 
     11 C           7.689090    0.362222    1.128265 C.1       1 <1>         0.226900 
     12 N           8.833618    0.263812    1.317149 N.1       1 <1>        -0.485100 
     13 C           5.726137    1.723802    0.528992 C.ar      1 <1>        -0.140400 
     14 C           4.364248    1.835763    0.305475 C.ar      1 <1>        -0.206400 
     15 N          -0.096978    0.709406   -0.084274 N.ar      1 <1>        -0.561100 
     16 C          -1.213472   -0.023697   -0.063289 C.ar      1 <1>         0.263000 
     17 C          -2.477322    0.753467   -0.462227 C.3       1 <1>         0.013800 
     18 O          -3.142591    0.140197   -1.553749 O.3       1 <1>        -0.615100 
     19 C          -3.402356    0.988879    0.735592 C.ar      1 <1>         0.118300 
     20 C          -2.862442    1.841452    1.718810 C.ar      1 <1>        -0.178200 
     21 C          -3.549867    2.178640    2.877363 C.ar      1 <1>        -0.125500 
     22 C          -4.831010    1.666407    3.087601 C.ar      1 <1>        -0.125000 
     23 C          -5.394459    0.826234    2.134771 C.ar      1 <1>        -0.144300 
     24 C          -4.691252    0.488026    0.970933 C.ar      1 <1>         0.010000 
     25 BR         -5.640051   -0.689655   -0.210772 Br        1 <1>        -0.107500 
     26 H          -3.070691   -2.003583    1.169424 H         1 <1>         0.179500 
     27 H          -2.124542   -3.322726    0.466452 H         1 <1>         0.152900 
     28 H          -3.027621   -2.195700   -0.573943 H         1 <1>         0.198300 
     29 H           0.174337   -2.961825    0.805727 H         1 <1>         0.149500 
     30 H           1.894306    1.876462   -0.062433 H         1 <1>         0.343500 
     31 H           3.421761   -1.380598    0.910955 H         1 <1>         0.189200 
     32 H           5.855568   -1.585903    1.311816 H         1 <1>         0.158100 
     33 H           6.367838    2.592311    0.421578 H         1 <1>         0.157500 
     34 H           3.945456    2.798798    0.022426 H         1 <1>         0.135100 
     35 H          -2.110113    1.744565   -0.761331 H         1 <1>         0.160600 
     36 H          -2.536681    0.178343   -2.310938 H         1 <1>         0.403000 
     37 H          -1.866223    2.243617    1.551841 H         1 <1>         0.150900 
     38 H          -3.091543    2.840238    3.606584 H         1 <1>         0.140500 
     39 H          -5.391526    1.918634    3.983157 H         1 <1>         0.143000 
     40 H          -6.389207    0.418908    2.277785 H         1 <1>         0.157100 
@<TRIPOS>BOND
     1   18   36 1    
     2   17   35 1    
     3   14   34 1    
     4   17   18 1    
     5    6   30 1    
     6   13   33 1    
     7   16   17 1    
     8   17   19 1    
     9   14   13 ar   
    10    7   14 ar   
    11   13   10 ar   
    12   16   15 ar   
    13   15    5 ar   
    14    6    7 1    
    15    5    6 1    
    16    2   16 ar   
    17    7    8 ar   
    18   20   37 1    
    19   19   20 ar   
    20   19   24 ar   
    21    5    4 ar   
    22   24   25 1    
    23   20   21 ar   
    24   10   11 1    
    25    9   10 ar   
    26   24   23 ar   
    27    1   28 1    
    28   11   12 3    
    29    8    9 ar   
    30    8   31 1    
    31    2    3 ar   
    32    2    1 1    
    33    4    3 ar   
    34   21   38 1    
    35   21   22 ar   
    36    9   32 1    
    37   23   22 ar   
    38   23   40 1    
    39    3   29 1    
    40    1   26 1    
    41    1   27 1    
    42   22   39 1    
@<TRIPOS>SUBSTRUCTURE
     1 ****       30 TEMP              0 ****  ****    0 ROOT 
