#	Name:			GSX-2011-BMC-5117-10q
#	Creating user name:	Administrator
#	Creation time:		Sun Jul 05 16:38:19 2020

#	Modifying user name:	Administrator
#	Modification time:	Sun Jul 05 16:40:47 2020

@<TRIPOS>MOLECULE
GSX-2011-BMC-5117-10q
   40    42     1     0     0
SMALL
MULLIKEN_CHARGES
INVALID_CHARGES
Gaussian 16 #p B3LYP/6-31G* opt
@<TRIPOS>ATOM
      1 C           0.092467   -3.369781    0.851128 C.3       1 <1>        -0.514600 
      2 C           0.003634   -1.890775    0.590527 C.ar      1 <1>         0.341300 
      3 C          -1.210116   -1.206359    0.605603 C.ar      1 <1>        -0.225700 
      4 C          -1.172303    0.167096    0.347083 C.ar      1 <1>         0.334200 
      5 C          -2.417300    1.067437    0.380028 C.3       1 <1>         0.015300 
      6 O          -2.114424    2.343157   -0.137710 O.3       1 <1>        -0.645100 
      7 C          -3.590466    0.456507   -0.370392 C.ar      1 <1>         0.161400 
      8 C          -4.604727   -0.222116    0.311887 C.ar      1 <1>        -0.195400 
      9 C          -5.665930   -0.812008   -0.378413 C.ar      1 <1>        -0.198900 
     10 C          -5.698862   -0.700752   -1.762244 C.ar      1 <1>         0.380900 
     11 F          -6.721968   -1.261737   -2.440546 F         1 <1>        -0.296400 
     12 C          -4.713696   -0.018895   -2.470504 C.ar      1 <1>        -0.197000 
     13 C          -3.660543    0.558518   -1.765746 C.ar      1 <1>        -0.163600 
     14 N          -0.027125    0.798184    0.096593 N.ar      1 <1>        -0.613900 
     15 C           1.098545    0.048827    0.098481 C.ar      1 <1>         0.706600 
     16 N           2.238659    0.772951   -0.175662 N.pl3     1 <1>        -0.770700 
     17 C           3.584077    0.410385   -0.271926 C.ar      1 <1>         0.381900 
     18 C           4.070139   -0.897138   -0.089129 C.ar      1 <1>        -0.159000 
     19 C           5.431363   -1.149783   -0.207486 C.ar      1 <1>        -0.153200 
     20 C           6.339373   -0.121379   -0.507847 C.ar      1 <1>         0.132200 
     21 C           7.738656   -0.396543   -0.626553 C.1       1 <1>         0.228200 
     22 N           8.877120   -0.619492   -0.723158 N.1       1 <1>        -0.482900 
     23 C           5.851118    1.184454   -0.690374 C.ar      1 <1>        -0.140000 
     24 C           4.495407    1.442591   -0.573614 C.ar      1 <1>        -0.206000 
     25 N           1.166639   -1.261847    0.335586 N.ar      1 <1>        -0.532400 
     26 H           0.752460   -3.563227    1.704128 H         1 <1>         0.181600 
     27 H           0.529803   -3.879186   -0.015012 H         1 <1>         0.183100 
     28 H          -0.888945   -3.804765    1.057046 H         1 <1>         0.162600 
     29 H          -2.145732   -1.718971    0.793706 H         1 <1>         0.151800 
     30 H          -2.702187    1.149775    1.444880 H         1 <1>         0.151100 
     31 H          -1.137549    2.391064   -0.154526 H         1 <1>         0.409100 
     32 H          -4.578105   -0.283029    1.397651 H         1 <1>         0.135100 
     33 H          -6.462819   -1.336361    0.138537 H         1 <1>         0.148600 
     34 H          -4.785627    0.054742   -3.550818 H         1 <1>         0.150100 
     35 H          -2.891820    1.114060   -2.292992 H         1 <1>         0.152000 
     36 H           2.034940    1.751458   -0.332949 H         1 <1>         0.344300 
     37 H           3.377316   -1.692855    0.142086 H         1 <1>         0.186500 
     38 H           5.800195   -2.160643   -0.065316 H         1 <1>         0.158900 
     39 H           6.539852    1.990108   -0.923000 H         1 <1>         0.159900 
     40 H           4.129692    2.456787   -0.716909 H         1 <1>         0.138100 
@<TRIPOS>BOND
     1    5   30 1    
     2    8   32 1    
     3    1   26 1    
     4    5    6 1    
     5    4    5 1    
     6    5    7 1    
     7    6   31 1    
     8    7    8 ar   
     9    8    9 ar   
    10    3   29 1    
    11    4    3 ar   
    12   14    4 ar   
    13    2    3 ar   
    14   15   14 ar   
    15    9   33 1    
    16    1   28 1    
    17    2    1 1    
    18   25    2 ar   
    19   15   25 ar   
    20   16   15 1    
    21    1   27 1    
    22    7   13 ar   
    23   16   36 1    
    24   17   16 1    
    25    9   10 ar   
    26   24   40 1    
    27   17   24 ar   
    28   17   18 ar   
    29   18   37 1    
    30   24   23 ar   
    31   18   19 ar   
    32   23   39 1    
    33   23   20 ar   
    34   19   20 ar   
    35   19   38 1    
    36   20   21 1    
    37   21   22 3    
    38   13   35 1    
    39   13   12 ar   
    40   10   12 ar   
    41   10   11 1    
    42   12   34 1    
@<TRIPOS>SUBSTRUCTURE
     1 ****       32 TEMP              0 ****  ****    0 ROOT 
