#	Name:			GSX-2012-EJMC-229-3a-R
#	Creating user name:	Administrator
#	Creation time:		Sun Jul 05 16:38:23 2020

#	Modifying user name:	Administrator
#	Modification time:	Sun Jul 05 16:40:47 2020

@<TRIPOS>MOLECULE
GSX-2012-EJMC-229-3a-R
   37    39     1     0     0
SMALL
MULLIKEN_CHARGES
INVALID_CHARGES
Gaussian 16 #p B3LYP/6-31G* opt
@<TRIPOS>ATOM
      1 N           2.988748    7.581210   -1.373246 N.1       1 <1>        -0.486400 
      2 C           2.811203    6.455026   -1.136658 C.1       1 <1>         0.226100 
      3 C           2.590920    5.071675   -0.845736 C.ar      1 <1>         0.131300 
      4 C           1.286780    4.554590   -0.776668 C.ar      1 <1>        -0.157000 
      5 C           1.056067    3.214139   -0.495291 C.ar      1 <1>        -0.163700 
      6 C           2.143937    2.349165   -0.272099 C.ar      1 <1>         0.381200 
      7 N           2.023148    0.991911    0.023407 N.pl3     1 <1>        -0.765700 
      8 C           0.930154    0.160094    0.156645 C.ar      1 <1>         0.687400 
      9 N           1.261680   -1.106202    0.487227 N.ar      1 <1>        -0.484300 
     10 C           0.240366   -1.948589    0.623346 C.ar      1 <1>         0.074200 
     11 C          -1.091817   -1.570943    0.447460 C.ar      1 <1>        -0.208600 
     12 C          -1.312363   -0.236180    0.114184 C.ar      1 <1>         0.321700 
     13 C          -2.721696    0.291413   -0.172443 C.3       1 <1>        -0.030600 
     14 O          -3.732388   -0.593289    0.287240 O.3       1 <1>        -0.619900 
     15 C          -2.933370    1.736733    0.268355 C.ar      1 <1>         0.220200 
     16 C          -3.152192    2.724255   -0.700774 C.ar      1 <1>        -0.196500 
     17 C          -3.362017    4.059566   -0.357512 C.ar      1 <1>        -0.124700 
     18 C          -3.363739    4.436615    0.984743 C.ar      1 <1>        -0.126200 
     19 C          -3.156062    3.476554    1.975149 C.ar      1 <1>        -0.122400 
     20 C          -2.943936    2.150509    1.607081 C.ar      1 <1>        -0.138900 
     21 CL         -2.688624    0.976333    2.909562 Cl        1 <1>        -0.028500 
     22 N          -0.305934    0.633786   -0.040334 N.ar      1 <1>        -0.540200 
     23 C           3.453509    2.868448   -0.341332 C.ar      1 <1>        -0.204300 
     24 C           3.676524    4.205764   -0.623111 C.ar      1 <1>        -0.141200 
     25 H           0.441689    5.215012   -0.944255 H         1 <1>         0.154200 
     26 H           0.048640    2.828191   -0.444217 H         1 <1>         0.196400 
     27 H           2.888095    0.493309    0.190968 H         1 <1>         0.347600 
     28 H           0.499274   -2.973479    0.885107 H         1 <1>         0.155900 
     29 H          -1.911831   -2.268804    0.553216 H         1 <1>         0.159300 
     30 H          -2.829386    0.277599   -1.263911 H         1 <1>         0.178700 
     31 H          -3.717687   -0.576500    1.259166 H         1 <1>         0.408800 
     32 H          -3.155738    2.431798   -1.747600 H         1 <1>         0.145200 
     33 H          -3.528871    4.798573   -1.135599 H         1 <1>         0.146000 
     34 H          -3.528628    5.472071    1.267881 H         1 <1>         0.149000 
     35 H          -3.156485    3.748754    3.025162 H         1 <1>         0.161300 
     36 H           4.301141    2.208631   -0.170917 H         1 <1>         0.137300 
     37 H           4.690594    4.588923   -0.672651 H         1 <1>         0.157400 
@<TRIPOS>BOND
     1   16   32 1    
     2   13   30 1    
     3   17   33 1    
     4   16   17 ar   
     5   15   16 ar   
     6   13   14 1    
     7   12   13 1    
     8   13   15 1    
     9   14   31 1    
    10   17   18 ar   
    11   22   12 ar   
    12   12   11 ar   
    13   15   20 ar   
    14   11   29 1    
    15    4   25 1    
    16    5   26 1    
    17    8   22 ar   
    18   10   11 ar   
    19    5    4 ar   
    20    4    3 ar   
    21    6    5 ar   
    22    2    1 3    
    23    3    2 1    
    24    7    8 1    
    25    8    9 ar   
    26   10   28 1    
    27    9   10 ar   
    28    3   24 ar   
    29    6    7 1    
    30    6   23 ar   
    31    7   27 1    
    32   18   34 1    
    33   18   19 ar   
    34   24   23 ar   
    35   24   37 1    
    36   23   36 1    
    37   20   19 ar   
    38   20   21 1    
    39   19   35 1    
@<TRIPOS>SUBSTRUCTURE
     1 ****        1 TEMP              0 ****  ****    0 ROOT 
