#	Name:			GSX-2011-BMC-5117-10y
#	Creating user name:	Administrator
#	Creation time:		Sun Jul 05 16:38:19 2020

#	Modifying user name:	Administrator
#	Modification time:	Sun Jul 05 16:40:47 2020

@<TRIPOS>MOLECULE
GSX-2011-BMC-5117-10y
   43    45     1     0     0
SMALL
MULLIKEN_CHARGES
INVALID_CHARGES
Gaussian 16 #p B3LYP/6-31G* opt
@<TRIPOS>ATOM
      1 C          -7.121323    1.208975   -1.434035 C.3       1 <1>        -0.531200 
      2 C          -5.646184    0.930750   -1.610542 C.ar      1 <1>         0.181200 
      3 C          -5.131405    0.548793   -2.856167 C.ar      1 <1>        -0.174200 
      4 C          -3.772102    0.280524   -3.009162 C.ar      1 <1>        -0.132100 
      5 C          -2.903630    0.382583   -1.921793 C.ar      1 <1>        -0.175300 
      6 C          -3.395739    0.756507   -0.665723 C.ar      1 <1>         0.091900 
      7 C          -2.475887    0.927795    0.545834 C.3       1 <1>         0.016000 
      8 O          -3.163169    0.744233    1.782903 O.3       1 <1>        -0.621200 
      9 C          -1.207940    0.075844    0.474504 C.ar      1 <1>         0.276400 
     10 N          -0.107076    0.749762    0.138845 N.ar      1 <1>        -0.554000 
     11 C           1.048812    0.059789    0.061643 C.ar      1 <1>         0.690600 
     12 N           2.130239    0.843751   -0.288703 N.pl3     1 <1>        -0.767000 
     13 C           3.480258    0.552682   -0.477666 C.ar      1 <1>         0.383500 
     14 C           4.316652    1.629570   -0.838381 C.ar      1 <1>        -0.205900 
     15 C           5.671827    1.439882   -1.049529 C.ar      1 <1>        -0.140600 
     16 C           6.237431    0.160142   -0.906181 C.ar      1 <1>         0.130500 
     17 C           7.636685   -0.043808   -1.123499 C.1       1 <1>         0.226600 
     18 N           8.775470   -0.208671   -1.301114 N.1       1 <1>        -0.486000 
     19 C           5.404716   -0.912450   -0.546424 C.ar      1 <1>        -0.153300 
     20 C           4.044373   -0.728899   -0.333021 C.ar      1 <1>        -0.161100 
     21 N           1.198554   -1.248547    0.288489 N.ar      1 <1>        -0.474200 
     22 C           0.078185   -1.900849    0.617589 C.ar      1 <1>         0.017200 
     23 C          -1.178980   -1.312030    0.735369 C.ar      1 <1>         0.129200 
     24 C          -2.382358   -2.136510    1.115981 C.3       1 <1>        -0.569500 
     25 C          -4.762970    1.033970   -0.529473 C.ar      1 <1>        -0.251800 
     26 H          -7.536643    1.732852   -2.301940 H         1 <1>         0.162000 
     27 H          -7.310396    1.821590   -0.546761 H         1 <1>         0.160500 
     28 H          -7.690968    0.277280   -1.316899 H         1 <1>         0.166200 
     29 H          -5.798707    0.466999   -3.711242 H         1 <1>         0.126400 
     30 H          -3.383721   -0.008786   -3.982159 H         1 <1>         0.134600 
     31 H          -1.845440    0.182132   -2.057019 H         1 <1>         0.140200 
     32 H          -2.124399    1.964914    0.574204 H         1 <1>         0.185600 
     33 H          -3.760332   -0.013064    1.681189 H         1 <1>         0.396000 
     34 H           1.859719    1.810047   -0.420922 H         1 <1>         0.346400 
     35 H           3.890914    2.623788   -0.952130 H         1 <1>         0.136600 
     36 H           6.301487    2.279139   -1.326507 H         1 <1>         0.157200 
     37 H           5.832883   -1.903453   -0.433002 H         1 <1>         0.157100 
     38 H           3.410855   -1.559083   -0.056049 H         1 <1>         0.188300 
     39 H           0.192841   -2.970027    0.796057 H         1 <1>         0.146800 
     40 H          -2.702109   -1.933021    2.145213 H         1 <1>         0.177200 
     41 H          -3.233455   -1.948697    0.450656 H         1 <1>         0.170700 
     42 H          -2.149858   -3.204511    1.051921 H         1 <1>         0.165000 
     43 H          -5.141837    1.353074    0.437932 H         1 <1>         0.137300 
@<TRIPOS>BOND
     1    4   30 1    
     2    3   29 1    
     3   24   42 1    
     4   22   39 1    
     5    4    3 ar   
     6    5    4 ar   
     7   19   37 1    
     8    2    3 ar   
     9   24   41 1    
    10   20   38 1    
    11    5   31 1    
    12   22   21 ar   
    13   23   22 ar   
    14   23   24 1    
    15   24   40 1    
    16   20   19 ar   
    17   19   16 ar   
    18    6    5 ar   
    19   11   21 ar   
    20   17   18 3    
    21    1   28 1    
    22   13   20 ar   
    23    9   23 ar   
    24   16   17 1    
    25    2    1 1    
    26   25    2 ar   
    27   15   16 ar   
    28    1   26 1    
    29    1   27 1    
    30   11   12 1    
    31   10   11 ar   
    32    6   25 ar   
    33    7    6 1    
    34   12   13 1    
    35   13   14 ar   
    36    9   10 ar   
    37    7    9 1    
    38   25   43 1    
    39   12   34 1    
    40   14   15 ar   
    41   15   36 1    
    42   14   35 1    
    43    8   33 1    
    44    7    8 1    
    45    7   32 1    
@<TRIPOS>SUBSTRUCTURE
     1 ****       18 TEMP              0 ****  ****    0 ROOT 
