#	Name:			GSX-2011-BMC-5117-10t
#	Creating user name:	Administrator
#	Creation time:		Sun Jul 05 16:38:19 2020

#	Modifying user name:	Administrator
#	Modification time:	Sun Jul 05 16:40:47 2020

@<TRIPOS>MOLECULE
GSX-2011-BMC-5117-10t
   40    42     1     0     0
SMALL
MULLIKEN_CHARGES
INVALID_CHARGES
Gaussian 16 #p B3LYP/6-31G* opt
@<TRIPOS>ATOM
      1 C          -2.380706   -2.139241    1.120719 C.3       1 <1>        -0.573400 
      2 C          -1.179173   -1.312828    0.737457 C.ar      1 <1>         0.127300 
      3 C           0.078699   -1.901144    0.617241 C.ar      1 <1>         0.019000 
      4 N           1.197759   -1.248259    0.287565 N.ar      1 <1>        -0.472700 
      5 C           1.048269    0.060632    0.060838 C.ar      1 <1>         0.691300 
      6 N           2.128604    0.843967   -0.288991 N.pl3     1 <1>        -0.766600 
      7 C           3.479324    0.552545   -0.479855 C.ar      1 <1>         0.382800 
      8 C           4.314664    1.630057   -0.840078 C.ar      1 <1>        -0.205800 
      9 C           5.669812    1.440851   -1.052781 C.ar      1 <1>        -0.140300 
     10 C           6.235372    0.161099   -0.911280 C.ar      1 <1>         0.131200 
     11 C           7.634727   -0.042525   -1.130019 C.1       1 <1>         0.227400 
     12 N           8.773287   -0.207250   -1.308497 N.1       1 <1>        -0.484500 
     13 C           5.403677   -0.912136   -0.552037 C.ar      1 <1>        -0.153100 
     14 C           4.043376   -0.728946   -0.337000 C.ar      1 <1>        -0.160800 
     15 N          -0.108828    0.749492    0.138466 N.ar      1 <1>        -0.554300 
     16 C          -1.208203    0.074528    0.476814 C.ar      1 <1>         0.274000 
     17 C          -2.475947    0.927789    0.546811 C.3       1 <1>         0.015200 
     18 O          -3.171092    0.752431    1.778695 O.3       1 <1>        -0.619800 
     19 C          -3.391014    0.757845   -0.668354 C.ar      1 <1>         0.089700 
     20 C          -2.890287    0.417602   -1.931892 C.ar      1 <1>        -0.165800 
     21 C          -3.736935    0.305772   -3.034211 C.ar      1 <1>        -0.134100 
     22 C          -5.101832    0.538678   -2.871925 C.ar      1 <1>        -0.063300 
     23 CL         -6.176643    0.391559   -4.254900 Cl        1 <1>        -0.017500 
     24 C          -5.624553    0.889055   -1.628698 C.ar      1 <1>        -0.129200 
     25 C          -4.764849    0.999770   -0.536099 C.ar      1 <1>        -0.187600 
     26 H          -2.151416   -3.206876    1.042275 H         1 <1>         0.169400 
     27 H          -2.689333   -1.950201    2.156545 H         1 <1>         0.178000 
     28 H          -3.239015   -1.944803    0.466430 H         1 <1>         0.170200 
     29 H           0.194000   -2.970477    0.794644 H         1 <1>         0.149100 
     30 H           1.859258    1.810837   -0.419711 H         1 <1>         0.346900 
     31 H           3.888602    2.624409   -0.952456 H         1 <1>         0.137400 
     32 H           6.299014    2.280545   -1.329509 H         1 <1>         0.158400 
     33 H           5.832185   -1.903165   -0.440046 H         1 <1>         0.158200 
     34 H           3.410766   -1.559854   -0.060171 H         1 <1>         0.188400 
     35 H          -2.123847    1.964439    0.574948 H         1 <1>         0.189900 
     36 H          -3.712575   -0.048960    1.707777 H         1 <1>         0.397800 
     37 H          -1.827271    0.243329   -2.067060 H         1 <1>         0.152200 
     38 H          -3.342364    0.038654   -4.008710 H         1 <1>         0.160600 
     39 H          -6.687301    1.076992   -1.517575 H         1 <1>         0.160000 
     40 H          -5.164773    1.289833    0.430500 H         1 <1>         0.154600 
@<TRIPOS>BOND
     1    8   31 1    
     2   17   35 1    
     3    9   32 1    
     4    6   30 1    
     5   25   40 1    
     6   17   18 1    
     7   18   36 1    
     8    8    9 ar   
     9    7    8 ar   
    10   17   19 1    
    11   16   17 1    
    12    9   10 ar   
    13   19   25 ar   
    14   25   24 ar   
    15   15   16 ar   
    16    5   15 ar   
    17    6    7 1    
    18    6    5 1    
    19   24   39 1    
    20   19   20 ar   
    21   24   22 ar   
    22    7   14 ar   
    23   16    2 ar   
    24    5    4 ar   
    25   20   37 1    
    26   20   21 ar   
    27   10   11 1    
    28   10   13 ar   
    29   22   21 ar   
    30   22   23 1    
    31   11   12 3    
    32   21   38 1    
    33   14   13 ar   
    34   14   34 1    
    35    2    3 ar   
    36    2    1 1    
    37   13   33 1    
    38    4    3 ar   
    39    1   27 1    
    40    3   29 1    
    41    1   28 1    
    42    1   26 1    
@<TRIPOS>SUBSTRUCTURE
     1 ****       30 TEMP              0 ****  ****    0 ROOT 
