#	Name:			GSX-2011-BMC-5117-10d
#	Creating user name:	Administrator
#	Creation time:		Sun Jul 05 16:38:18 2020

#	Modifying user name:	Administrator
#	Modification time:	Sun Jul 05 16:40:47 2020

@<TRIPOS>MOLECULE
GSX-2011-BMC-5117-10d
   40    42     1     0     0
SMALL
MULLIKEN_CHARGES
INVALID_CHARGES
Gaussian 16 #p B3LYP/6-31G* opt
@<TRIPOS>ATOM
      1 C          -2.590709    0.607120   -2.652028 C.3       1 <1>        -0.540500 
      2 C          -3.708270    0.225716   -1.708468 C.ar      1 <1>         0.140500 
      3 C          -4.870856   -0.361777   -2.220594 C.ar      1 <1>        -0.186500 
      4 C          -5.934006   -0.736719   -1.397111 C.ar      1 <1>        -0.121800 
      5 C          -5.851712   -0.520182   -0.024475 C.ar      1 <1>        -0.130800 
      6 C          -4.703237    0.072172    0.502814 C.ar      1 <1>        -0.204100 
      7 C          -3.629786    0.443038   -0.313893 C.ar      1 <1>         0.126600 
      8 C          -2.410726    1.071132    0.348893 C.3       1 <1>         0.010500 
      9 O          -2.122827    2.342235   -0.198344 O.3       1 <1>        -0.640500 
     10 C          -1.171251    0.169928    0.318553 C.ar      1 <1>         0.323700 
     11 C          -1.217646   -1.204534    0.583901 C.ar      1 <1>        -0.192600 
     12 C           0.000471   -1.869781    0.584237 C.ar      1 <1>         0.069400 
     13 N           1.173586   -1.266733    0.348284 N.ar      1 <1>        -0.478200 
     14 C           1.109414    0.046981    0.105835 C.ar      1 <1>         0.705400 
     15 N           2.253531    0.768558   -0.151987 N.pl3     1 <1>        -0.765900 
     16 C           3.600463    0.403494   -0.225070 C.ar      1 <1>         0.381600 
     17 C           4.081331   -0.904059   -0.030447 C.ar      1 <1>        -0.158900 
     18 C           5.443919   -1.158708   -0.126148 C.ar      1 <1>        -0.152900 
     19 C           6.357950   -0.132264   -0.415005 C.ar      1 <1>         0.132300 
     20 C           7.758657   -0.409191   -0.510487 C.1       1 <1>         0.228600 
     21 N           8.898321   -0.633227   -0.588397 N.1       1 <1>        -0.482600 
     22 C           5.874443    1.173706   -0.609196 C.ar      1 <1>        -0.139900 
     23 C           4.517392    1.433824   -0.515045 C.ar      1 <1>        -0.205900 
     24 N          -0.017427    0.793432    0.084024 N.ar      1 <1>        -0.604700 
     25 H          -2.866926    0.384583   -3.687256 H         1 <1>         0.149500 
     26 H          -2.354978    1.671316   -2.568900 H         1 <1>         0.188700 
     27 H          -1.667251    0.056887   -2.432240 H         1 <1>         0.155800 
     28 H          -4.941565   -0.528436   -3.293016 H         1 <1>         0.125800 
     29 H          -6.821284   -1.190282   -1.830768 H         1 <1>         0.131600 
     30 H          -6.672481   -0.797447    0.631110 H         1 <1>         0.130900 
     31 H          -4.641438    0.260841    1.572614 H         1 <1>         0.128400 
     32 H          -2.652668    1.185519    1.421181 H         1 <1>         0.152700 
     33 H          -1.146966    2.402931   -0.213556 H         1 <1>         0.407500 
     34 H          -2.153466   -1.718389    0.766342 H         1 <1>         0.163000 
     35 H           0.051831   -2.939442    0.778836 H         1 <1>         0.160100 
     36 H           2.053859    1.747011   -0.315567 H         1 <1>         0.344700 
     37 H           3.384689   -1.699069    0.192034 H         1 <1>         0.190300 
     38 H           5.809044   -2.169635    0.024990 H         1 <1>         0.159900 
     39 H           6.567957    1.977717   -0.833069 H         1 <1>         0.160000 
     40 H           4.155250    2.448041   -0.667169 H         1 <1>         0.138200 
@<TRIPOS>BOND
     1    8   32 1    
     2    6   31 1    
     3    8    9 1    
     4   10    8 1    
     5    8    7 1    
     6    9   33 1    
     7    7    6 ar   
     8    6    5 ar   
     9    5   30 1    
    10   24   10 ar   
    11   10   11 ar   
    12   14   24 ar   
    13   15   36 1    
    14   23   40 1    
    15   11   34 1    
    16   11   12 ar   
    17   15   14 1    
    18   14   13 ar   
    19   16   15 1    
    20    7    2 ar   
    21    5    4 ar   
    22   23   16 ar   
    23   23   22 ar   
    24   12   13 ar   
    25   12   35 1    
    26   16   17 ar   
    27   22   39 1    
    28   22   19 ar   
    29   17   37 1    
    30   17   18 ar   
    31   19   18 ar   
    32   19   20 1    
    33   18   38 1    
    34   20   21 3    
    35    4   29 1    
    36    4    3 ar   
    37    2    3 ar   
    38    2    1 1    
    39    1   26 1    
    40    3   28 1    
    41    1   27 1    
    42    1   25 1    
@<TRIPOS>SUBSTRUCTURE
     1 ****       40 TEMP              0 ****  ****    0 ROOT 
