#	Name:			GSX-2011-BMC-5117-10e
#	Creating user name:	Administrator
#	Creation time:		Sun Jul 05 16:38:18 2020

#	Modifying user name:	Administrator
#	Modification time:	Sun Jul 05 16:40:47 2020

@<TRIPOS>MOLECULE
GSX-2011-BMC-5117-10e
   40    42     1     0     0
SMALL
MULLIKEN_CHARGES
INVALID_CHARGES
Gaussian 16 #p B3LYP/6-31G* opt
@<TRIPOS>ATOM
      1 C          -6.352050   -0.726603   -2.337816 C.3       1 <1>        -0.527700 
      2 C          -5.075042    0.064066   -2.166621 C.ar      1 <1>         0.175500 
      3 C          -4.539964    0.807917   -3.223608 C.ar      1 <1>        -0.176200 
      4 C          -3.377848    1.561768   -3.046786 C.ar      1 <1>        -0.130500 
      5 C          -2.733745    1.579937   -1.812257 C.ar      1 <1>        -0.171600 
      6 C          -3.252141    0.836322   -0.744603 C.ar      1 <1>         0.122000 
      7 C          -2.527738    0.844510    0.597156 C.3       1 <1>         0.020000 
      8 O          -3.388388    0.291018    1.584389 O.3       1 <1>        -0.629000 
      9 C          -1.216896    0.064921    0.505333 C.ar      1 <1>         0.304000 
     10 C          -1.162579   -1.310802    0.765772 C.ar      1 <1>        -0.200400 
     11 C           0.081573   -1.911380    0.629555 C.ar      1 <1>         0.073500 
     12 N           1.186835   -1.244674    0.272951 N.ar      1 <1>        -0.477300 
     13 C           1.021204    0.065295    0.048547 C.ar      1 <1>         0.693100 
     14 N           2.093091    0.850039   -0.322655 N.pl3     1 <1>        -0.765400 
     15 C           3.440790    0.563222   -0.541627 C.ar      1 <1>         0.382800 
     16 C           4.013551   -0.715533   -0.409577 C.ar      1 <1>        -0.159900 
     17 C           5.370160   -0.892448   -0.651184 C.ar      1 <1>        -0.153200 
     18 C           6.189788    0.184462   -1.027146 C.ar      1 <1>         0.131100 
     19 C           7.585684   -0.012079   -1.272305 C.1       1 <1>         0.227300 
     20 N           8.721661   -0.170478   -1.471750 N.1       1 <1>        -0.484800 
     21 C           5.615395    1.461281   -1.158901 C.ar      1 <1>        -0.140400 
     22 C           4.263739    1.644094   -0.919517 C.ar      1 <1>        -0.205700 
     23 N          -0.133184    0.757792    0.155791 N.ar      1 <1>        -0.550500 
     24 C          -4.413980    0.084584   -0.930153 C.ar      1 <1>        -0.224100 
     25 H          -6.539984   -0.961379   -3.390739 H         1 <1>         0.155200 
     26 H          -6.318080   -1.669645   -1.781179 H         1 <1>         0.158300 
     27 H          -7.220088   -0.164783   -1.967715 H         1 <1>         0.167000 
     28 H          -5.036624    0.799589   -4.191253 H         1 <1>         0.122200 
     29 H          -2.974036    2.136914   -3.875875 H         1 <1>         0.129000 
     30 H          -1.825067    2.159425   -1.674617 H         1 <1>         0.134500 
     31 H          -2.262406    1.882438    0.844717 H         1 <1>         0.151400 
     32 H          -2.933224    0.351478    2.438534 H         1 <1>         0.400300 
     33 H          -2.047526   -1.864266    1.053509 H         1 <1>         0.160200 
     34 H           0.211584   -2.976874    0.811992 H         1 <1>         0.155800 
     35 H           1.817191    1.814499   -0.456811 H         1 <1>         0.345300 
     36 H           3.389447   -1.548816   -0.120917 H         1 <1>         0.189300 
     37 H           5.805306   -1.881468   -0.547610 H         1 <1>         0.158200 
     38 H           6.234938    2.303741   -1.448881 H         1 <1>         0.157900 
     39 H           3.830888    2.636250   -1.024623 H         1 <1>         0.136300 
     40 H          -4.814917   -0.481573   -0.095763 H         1 <1>         0.146500 
@<TRIPOS>BOND
     1    7   31 1    
     2   22   39 1    
     3    8   32 1    
     4   14   35 1    
     5   21   38 1    
     6    7    8 1    
     7    6    7 1    
     8    7    9 1    
     9    5   30 1    
    10   22   21 ar   
    11   15   22 ar   
    12    9   23 ar   
    13   23   13 ar   
    14   21   18 ar   
    15   14   15 1    
    16   13   14 1    
    17    5    6 ar   
    18    5    4 ar   
    19    6   24 ar   
    20    9   10 ar   
    21   15   16 ar   
    22   13   12 ar   
    23    4   29 1    
    24    4    3 ar   
    25   24   40 1    
    26   24    2 ar   
    27   18   19 1    
    28   18   17 ar   
    29   10   33 1    
    30   10   11 ar   
    31   19   20 3    
    32   16   17 ar   
    33   16   36 1    
    34    3    2 ar   
    35    3   28 1    
    36   12   11 ar   
    37    2    1 1    
    38    1   27 1    
    39   17   37 1    
    40   11   34 1    
    41    1   26 1    
    42    1   25 1    
@<TRIPOS>SUBSTRUCTURE
     1 ****       30 TEMP              0 ****  ****    0 ROOT 
