#	Name:			GSX-2011-BMC-5117-10o
#	Creating user name:	Administrator
#	Creation time:		Sun Jul 05 16:38:19 2020

#	Modifying user name:	Administrator
#	Modification time:	Sun Jul 05 16:40:47 2020

@<TRIPOS>MOLECULE
GSX-2011-BMC-5117-10o
   40    42     1     0     0
SMALL
MULLIKEN_CHARGES
INVALID_CHARGES
Gaussian 16 #p B3LYP/6-31G* opt
@<TRIPOS>ATOM
      1 C           0.495535   -3.376305    0.990870 C.3       1 <1>        -0.512500 
      2 C           0.193209   -1.954081    0.599962 C.ar      1 <1>         0.343300 
      3 C          -1.114347   -1.517501    0.342472 C.ar      1 <1>        -0.244000 
      4 C          -1.280146   -0.179957    0.002491 C.ar      1 <1>         0.317000 
      5 C          -2.641246    0.412894   -0.371633 C.3       1 <1>        -0.014900 
      6 O          -3.668094   -0.565798   -0.458012 O.3       1 <1>        -0.609600 
      7 C          -3.095015    1.524602    0.564020 C.ar      1 <1>         0.209000 
      8 C          -3.189274    2.825106    0.048778 C.ar      1 <1>        -0.190400 
      9 C          -3.595062    3.904148    0.831025 C.ar      1 <1>        -0.126400 
     10 C          -3.927592    3.695908    2.168284 C.ar      1 <1>        -0.121800 
     11 C          -3.849279    2.413932    2.709111 C.ar      1 <1>        -0.126800 
     12 C          -3.435728    1.344310    1.913953 C.ar      1 <1>        -0.120800 
     13 CL         -3.358113   -0.234891    2.686264 Cl        1 <1>        -0.007600 
     14 N          -0.246430    0.670063   -0.082936 N.ar      1 <1>        -0.545300 
     15 C           0.957769    0.157942    0.192055 C.ar      1 <1>         0.688300 
     16 N           2.082976    0.957745    0.139580 N.pl3     1 <1>        -0.770600 
     17 C           2.264249    2.314541   -0.121377 C.ar      1 <1>         0.383100 
     18 C           1.217186    3.228281   -0.346483 C.ar      1 <1>        -0.162100 
     19 C           1.507438    4.564646   -0.589854 C.ar      1 <1>        -0.154600 
     20 C           2.832373    5.030361   -0.617033 C.ar      1 <1>         0.130800 
     21 C           3.114833    6.409736   -0.870553 C.1       1 <1>         0.225900 
     22 N           3.344205    7.532269   -1.077365 N.1       1 <1>        -0.486500 
     23 C           3.877062    4.116644   -0.389522 C.ar      1 <1>        -0.141000 
     24 C           3.594491    2.783119   -0.146449 C.ar      1 <1>        -0.204900 
     25 N           1.233397   -1.119685    0.521837 N.ar      1 <1>        -0.541500 
     26 H          -0.382289   -4.019876    0.887679 H         1 <1>         0.159300 
     27 H           1.308875   -3.774195    0.375524 H         1 <1>         0.177700 
     28 H           0.832514   -3.414982    2.033614 H         1 <1>         0.182700 
     29 H          -1.965015   -2.180993    0.429909 H         1 <1>         0.153300 
     30 H          -2.487668    0.886853   -1.352619 H         1 <1>         0.149600 
     31 H          -3.440179   -1.165524   -1.186418 H         1 <1>         0.397200 
     32 H          -2.939462    2.986203   -0.996631 H         1 <1>         0.139700 
     33 H          -3.655985    4.897186    0.395595 H         1 <1>         0.141400 
     34 H          -4.249175    4.523711    2.793727 H         1 <1>         0.144300 
     35 H          -4.105964    2.232778    3.747356 H         1 <1>         0.157600 
     36 H           2.920538    0.427182    0.343483 H         1 <1>         0.345700 
     37 H           0.194839    2.880099   -0.324914 H         1 <1>         0.188300 
     38 H           0.694707    5.263960   -0.759894 H         1 <1>         0.153800 
     39 H           4.906391    4.460001   -0.406008 H         1 <1>         0.157000 
     40 H           4.410945    2.085731    0.026711 H         1 <1>         0.136400 
@<TRIPOS>BOND
     1   11   35 1    
     2    1   28 1    
     3   10   34 1    
     4   11   10 ar   
     5   12   11 ar   
     6   12   13 1    
     7   24   40 1    
     8    9   10 ar   
     9   23   39 1    
    10   16   36 1    
    11    7   12 ar   
    12   24   23 ar   
    13   17   24 ar   
    14   23   20 ar   
    15    2    1 1    
    16    1   26 1    
    17    1   27 1    
    18    2   25 ar   
    19   15   25 ar   
    20   16   17 1    
    21   15   16 1    
    22   17   18 ar   
    23    3    2 ar   
    24   20   21 1    
    25   19   20 ar   
    26   14   15 ar   
    27   21   22 3    
    28   18   19 ar   
    29   18   37 1    
    30   19   38 1    
    31    9   33 1    
    32    8    9 ar   
    33    3   29 1    
    34    4    3 ar   
    35    4   14 ar   
    36    7    8 ar   
    37    5    7 1    
    38    4    5 1    
    39    8   32 1    
    40    5    6 1    
    41    5   30 1    
    42    6   31 1    
@<TRIPOS>SUBSTRUCTURE
     1 ****       36 TEMP              0 ****  ****    0 ROOT 
