#	Name:			GSX-2011-BMC-5117-10j
#	Creating user name:	Administrator
#	Creation time:		Sun Jul 05 16:38:18 2020

#	Modifying user name:	Administrator
#	Modification time:	Sun Jul 05 16:40:47 2020

@<TRIPOS>MOLECULE
GSX-2011-BMC-5117-10j
   37    39     1     0     0
SMALL
MULLIKEN_CHARGES
INVALID_CHARGES
Gaussian 16 #p B3LYP/6-31G* opt
@<TRIPOS>ATOM
      1 N           8.845300    0.023722    1.338332 N.1       1 <1>        -0.482400 
      2 C           7.704810    0.155598    1.145958 C.1       1 <1>         0.228800 
      3 C           6.302990    0.319517    0.909423 C.ar      1 <1>         0.132400 
      4 C           5.423193   -0.766937    1.042323 C.ar      1 <1>        -0.152900 
      5 C           4.059851   -0.621805    0.816230 C.ar      1 <1>        -0.158700 
      6 C           3.543863    0.633601    0.446993 C.ar      1 <1>         0.381500 
      7 N           2.192630    0.889555    0.197315 N.pl3     1 <1>        -0.765800 
      8 C           1.075679    0.085038    0.229375 C.ar      1 <1>         0.708100 
      9 N           1.177045   -1.209393    0.546464 N.ar      1 <1>        -0.478900 
     10 C           0.026815   -1.897270    0.544158 C.ar      1 <1>         0.070700 
     11 C          -1.205560   -1.334531    0.244460 C.ar      1 <1>        -0.188900 
     12 C          -1.198588    0.029718   -0.072968 C.ar      1 <1>         0.327600 
     13 C          -2.461920    0.824475   -0.434615 C.3       1 <1>         0.007500 
     14 O          -2.127529    2.140427   -0.807095 O.3       1 <1>        -0.646400 
     15 C          -3.447326    0.830794    0.737587 C.ar      1 <1>         0.137100 
     16 C          -3.303741    1.805800    1.734041 C.ar      1 <1>        -0.164100 
     17 C          -4.162537    1.860970    2.828076 C.ar      1 <1>        -0.122700 
     18 C          -5.200066    0.934098    2.945885 C.ar      1 <1>        -0.127500 
     19 C          -5.372497   -0.040830    1.965637 C.ar      1 <1>        -0.145700 
     20 C          -4.499091   -0.079548    0.878794 C.ar      1 <1>         0.015100 
     21 BR         -4.806156   -1.450372   -0.439086 Br        1 <1>        -0.127700 
     22 N          -0.068609    0.733636   -0.083928 N.ar      1 <1>        -0.608200 
     23 C           4.426460    1.724208    0.313132 C.ar      1 <1>        -0.206000 
     24 C           5.784400    1.573119    0.539918 C.ar      1 <1>        -0.139800 
     25 H           5.815584   -1.738044    1.327047 H         1 <1>         0.160300 
     26 H           3.389638   -1.462453    0.920414 H         1 <1>         0.190800 
     27 H           1.966721    1.841711   -0.059924 H         1 <1>         0.344400 
     28 H           0.108939   -2.952889    0.795975 H         1 <1>         0.161400 
     29 H          -2.118368   -1.916616    0.241534 H         1 <1>         0.173400 
     30 H          -2.941454    0.315680   -1.282038 H         1 <1>         0.177300 
     31 H          -1.154755    2.198936   -0.716650 H         1 <1>         0.411400 
     32 H          -2.512276    2.538380    1.615376 H         1 <1>         0.149200 
     33 H          -4.026477    2.628825    3.584273 H         1 <1>         0.140800 
     34 H          -5.879900    0.969503    3.792424 H         1 <1>         0.143600 
     35 H          -6.178186   -0.763604    2.033614 H         1 <1>         0.156400 
     36 H           4.036905    2.698713    0.027649 H         1 <1>         0.138000 
     37 H           6.451303    2.422328    0.432778 H         1 <1>         0.160100 
@<TRIPOS>BOND
     1   14   31 1    
     2   13   14 1    
     3   13   30 1    
     4   23   36 1    
     5    7   27 1    
     6   13   12 1    
     7   15   13 1    
     8   24   37 1    
     9   23   24 ar   
    10    6   23 ar   
    11   12   22 ar   
    12   22    8 ar   
    13    7    6 1    
    14    8    7 1    
    15   24    3 ar   
    16   12   11 ar   
    17    6    5 ar   
    18    8    9 ar   
    19   20   21 1    
    20   15   16 ar   
    21   15   20 ar   
    22   16   32 1    
    23    3    2 1    
    24    3    4 ar   
    25   11   29 1    
    26   11   10 ar   
    27   16   17 ar   
    28   20   19 ar   
    29    9   10 ar   
    30    2    1 3    
    31    5    4 ar   
    32    5   26 1    
    33   10   28 1    
    34    4   25 1    
    35   17   33 1    
    36   17   18 ar   
    37   19   35 1    
    38   19   18 ar   
    39   18   34 1    
@<TRIPOS>SUBSTRUCTURE
     1 ****       27 TEMP              0 ****  ****    0 ROOT 
