#	Name:			GSX-2011-BMC-5117-10r
#	Creating user name:	Administrator
#	Creation time:		Sun Jul 05 16:38:19 2020

#	Modifying user name:	Administrator
#	Modification time:	Sun Jul 05 16:40:47 2020

@<TRIPOS>MOLECULE
GSX-2011-BMC-5117-10r
   40    42     1     0     0
SMALL
MULLIKEN_CHARGES
INVALID_CHARGES
Gaussian 16 #p B3LYP/6-31G* opt
@<TRIPOS>ATOM
      1 C          -2.383230   -2.361068    0.303233 C.3       1 <1>        -0.532000 
      2 C          -1.190870   -1.441108    0.245812 C.ar      1 <1>         0.117900 
      3 C           0.081663   -1.915521    0.564514 C.ar      1 <1>         0.017500 
      4 N           1.198542   -1.179912    0.566282 N.ar      1 <1>        -0.473500 
      5 C           1.032912    0.102613    0.233210 C.ar      1 <1>         0.692100 
      6 N           2.109009    0.969736    0.205565 N.pl3     1 <1>        -0.767500 
      7 C           3.464247    0.793515    0.476500 C.ar      1 <1>         0.384200 
      8 C           4.292043    1.927226    0.337960 C.ar      1 <1>        -0.206300 
      9 C           5.651966    1.852102    0.586728 C.ar      1 <1>        -0.140600 
     10 C           6.231849    0.634048    0.984366 C.ar      1 <1>         0.130100 
     11 C           7.636127    0.549097    1.243659 C.1       1 <1>         0.226100 
     12 N           8.779206    0.481863    1.454535 N.1       1 <1>        -0.486700 
     13 C           5.407964   -0.495386    1.122113 C.ar      1 <1>        -0.153400 
     14 C           4.042915   -0.426857    0.874092 C.ar      1 <1>        -0.161300 
     15 N          -0.131886    0.685665   -0.108528 N.ar      1 <1>        -0.562300 
     16 C          -1.229580   -0.073522   -0.103939 C.ar      1 <1>         0.301700 
     17 C          -2.499799    0.690613   -0.471515 C.3       1 <1>         0.011500 
     18 O          -3.265090   -0.104870   -1.368963 O.3       1 <1>        -0.632000 
     19 C          -3.279824    1.113456    0.776447 C.ar      1 <1>         0.107700 
     20 C          -4.506841    0.527271    1.103510 C.ar      1 <1>        -0.195100 
     21 C          -5.208108    0.940299    2.239695 C.ar      1 <1>        -0.129100 
     22 C          -4.687718    1.939511    3.061044 C.ar      1 <1>        -0.126400 
     23 C          -3.461266    2.528367    2.739969 C.ar      1 <1>        -0.130300 
     24 C          -2.764153    2.120230    1.604677 C.ar      1 <1>        -0.170600 
     25 H          -2.074577   -3.353858    0.647387 H         1 <1>         0.149700 
     26 H          -3.144459   -1.987563    0.996795 H         1 <1>         0.170100 
     27 H          -2.861381   -2.462302   -0.674255 H         1 <1>         0.190600 
     28 H           0.209516   -2.961883    0.840889 H         1 <1>         0.147100 
     29 H           1.828345    1.900730   -0.074427 H         1 <1>         0.343100 
     30 H           3.855315    2.874871    0.030874 H         1 <1>         0.134300 
     31 H           6.274507    2.734096    0.475180 H         1 <1>         0.156300 
     32 H           5.846995   -1.439817    1.428338 H         1 <1>         0.157000 
     33 H           3.416246   -1.300330    0.981650 H         1 <1>         0.189100 
     34 H          -2.148710    1.599852   -0.977587 H         1 <1>         0.155800 
     35 H          -4.035635    0.422253   -1.633845 H         1 <1>         0.401600 
     36 H          -4.912647   -0.251916    0.465787 H         1 <1>         0.137200 
     37 H          -6.161607    0.477603    2.480595 H         1 <1>         0.134200 
     38 H          -5.232991    2.260680    3.944277 H         1 <1>         0.134500 
     39 H          -3.050334    3.310298    3.373058 H         1 <1>         0.135500 
     40 H          -1.810342    2.578581    1.355584 H         1 <1>         0.142400 
@<TRIPOS>BOND
     1   18   35 1    
     2   17   34 1    
     3    8   30 1    
     4   17   18 1    
     5    6   29 1    
     6   16   17 1    
     7   17   19 1    
     8    9   31 1    
     9    8    9 ar   
    10    7    8 ar   
    11   16   15 ar   
    12   15    5 ar   
    13    9   10 ar   
    14    6    7 1    
    15    5    6 1    
    16    2   16 ar   
    17   24   40 1    
    18    7   14 ar   
    19   19   24 ar   
    20   19   20 ar   
    21    5    4 ar   
    22   24   23 ar   
    23   20   36 1    
    24    1   27 1    
    25   20   21 ar   
    26   10   11 1    
    27   10   13 ar   
    28    2    1 1    
    29    2    3 ar   
    30   11   12 3    
    31   14   13 ar   
    32   14   33 1    
    33    4    3 ar   
    34   23   39 1    
    35   23   22 ar   
    36   13   32 1    
    37    1   26 1    
    38    1   25 1    
    39    3   28 1    
    40   21   22 ar   
    41   21   37 1    
    42   22   38 1    
@<TRIPOS>SUBSTRUCTURE
     1 ****       29 TEMP              0 ****  ****    0 ROOT 
