#	Name:			GSX-2011-BMC-5117-10b
#	Creating user name:	Administrator
#	Creation time:		Sun Jul 05 16:38:18 2020

#	Modifying user name:	Administrator
#	Modification time:	Sun Jul 05 16:40:47 2020

@<TRIPOS>MOLECULE
GSX-2011-BMC-5117-10b
   37    39     1     0     0
SMALL
MULLIKEN_CHARGES
INVALID_CHARGES
Gaussian 16 #p B3LYP/6-31G* opt
@<TRIPOS>ATOM
      1 N           3.775961    7.278717   -1.478293 N.1       1 <1>        -0.485900 
      2 C           3.481236    6.170659   -1.276607 C.1       1 <1>         0.227100 
      3 C           3.120686    4.808348   -1.028702 C.ar      1 <1>         0.132000 
      4 C           4.043325    3.772909   -1.260436 C.ar      1 <1>        -0.141000 
      5 C           3.686094    2.456701   -1.019601 C.ar      1 <1>        -0.203900 
      6 C           2.401216    2.129396   -0.540728 C.ar      1 <1>         0.380100 
      7 N           2.145045    0.776192   -0.311945 N.pl3     1 <1>        -0.762000 
      8 C           0.996894    0.103856    0.047148 C.ar      1 <1>         0.686700 
      9 N           1.185217   -1.217338    0.254821 N.ar      1 <1>        -0.483000 
     10 C           0.100800   -1.897169    0.618964 C.ar      1 <1>         0.072000 
     11 C          -1.151674   -1.303829    0.784961 C.ar      1 <1>        -0.200800 
     12 C          -1.228537    0.064211    0.523087 C.ar      1 <1>         0.338700 
     13 C          -2.556928    0.808846    0.602927 C.3       1 <1>         0.011900 
     14 O          -2.295267    2.109241    1.109939 O.3       1 <1>        -0.613200 
     15 C          -3.242112    0.847371   -0.759935 C.ar      1 <1>         0.103300 
     16 C          -4.371076    0.060808   -1.014098 C.ar      1 <1>        -0.183400 
     17 C          -4.993934    0.102010   -2.263795 C.ar      1 <1>        -0.131100 
     18 C          -4.501855    0.931501   -3.270546 C.ar      1 <1>        -0.192100 
     19 C          -3.380262    1.709010   -2.996067 C.ar      1 <1>         0.386600 
     20 F          -2.898086    2.515215   -3.963876 F         1 <1>        -0.293700 
     21 C          -2.740513    1.685152   -1.764843 C.ar      1 <1>        -0.241400 
     22 N          -0.158539    0.769881    0.147819 N.ar      1 <1>        -0.517700 
     23 C           1.476228    3.164355   -0.303011 C.ar      1 <1>        -0.171900 
     24 C           1.841700    4.482356   -0.547945 C.ar      1 <1>        -0.156100 
     25 H           5.036038    4.008165   -1.630517 H         1 <1>         0.157100 
     26 H           4.406515    1.663574   -1.205841 H         1 <1>         0.136500 
     27 H           2.933730    0.148731   -0.405786 H         1 <1>         0.347200 
     28 H           0.240470   -2.963202    0.792126 H         1 <1>         0.155500 
     29 H          -2.015719   -1.879276    1.097957 H         1 <1>         0.141900 
     30 H          -3.206323    0.247061    1.292924 H         1 <1>         0.131800 
     31 H          -3.107684    2.627868    0.997603 H         1 <1>         0.399100 
     32 H          -4.768538   -0.581613   -0.232410 H         1 <1>         0.129800 
     33 H          -5.871939   -0.508966   -2.452706 H         1 <1>         0.143500 
     34 H          -4.967593    0.987897   -4.248833 H         1 <1>         0.152100 
     35 H          -1.862929    2.298544   -1.594131 H         1 <1>         0.177000 
     36 H           0.489973    2.927545    0.071102 H         1 <1>         0.210100 
     37 H           1.125799    5.276392   -0.360242 H         1 <1>         0.157400 
@<TRIPOS>BOND
     1    5   26 1    
     2   18   34 1    
     3   19   20 1    
     4    7   27 1    
     5    4   25 1    
     6    5    4 ar   
     7    6    5 ar   
     8   19   18 ar   
     9   17   18 ar   
    10   10   28 1    
    11   10    9 ar   
    12    8    9 ar   
    13   21   19 ar   
    14    4    3 ar   
    15    7    6 1    
    16    8    7 1    
    17   17   33 1    
    18   11   10 ar   
    19   16   17 ar   
    20    6   23 ar   
    21   22    8 ar   
    22   21   35 1    
    23   15   21 ar   
    24    3    2 1    
    25   24    3 ar   
    26   11   29 1    
    27   12   11 ar   
    28   12   22 ar   
    29   15   16 ar   
    30   16   32 1    
    31    2    1 3    
    32   23   24 ar   
    33   23   36 1    
    34   13   15 1    
    35   12   13 1    
    36   24   37 1    
    37   13   30 1    
    38   13   14 1    
    39   14   31 1    
@<TRIPOS>SUBSTRUCTURE
     1 ****       27 TEMP              0 ****  ****    0 ROOT 
