#	Name:			GSX-2011-BMC-5117-10v
#	Creating user name:	Administrator
#	Creation time:		Sun Jul 05 16:38:19 2020

#	Modifying user name:	Administrator
#	Modification time:	Sun Jul 05 16:40:47 2020

@<TRIPOS>MOLECULE
GSX-2011-BMC-5117-10v
   40    42     1     0     0
SMALL
MULLIKEN_CHARGES
INVALID_CHARGES
Gaussian 16 #p B3LYP/6-31G* opt
@<TRIPOS>ATOM
      1 C          -2.407889   -2.285648    0.316632 C.3       1 <1>        -0.531900 
      2 C          -1.198124   -1.388844    0.254536 C.ar      1 <1>         0.112100 
      3 C           0.077150   -1.886378    0.552332 C.ar      1 <1>         0.019000 
      4 N           1.193804   -1.163618    0.539794 N.ar      1 <1>        -0.479100 
      5 C           1.040554    0.133278    0.215358 C.ar      1 <1>         0.682800 
      6 N           2.224234    0.845855    0.225171 N.pl3     1 <1>        -0.766000 
      7 C           2.529598    2.179076   -0.040743 C.ar      1 <1>         0.383500 
      8 C           3.883626    2.555770    0.081702 C.ar      1 <1>        -0.205200 
      9 C           4.286632    3.857587   -0.162565 C.ar      1 <1>        -0.140400 
     10 C           3.344161    4.831264   -0.539350 C.ar      1 <1>         0.130800 
     11 C           3.753059    6.178332   -0.793934 C.1       1 <1>         0.227000 
     12 N           4.086715    7.274236   -1.001340 N.1       1 <1>        -0.484500 
     13 C           1.995975    4.457133   -0.661403 C.ar      1 <1>        -0.153700 
     14 C           1.585417    3.152497   -0.417930 C.ar      1 <1>        -0.164000 
     15 N          -0.114292    0.731671   -0.101108 N.ar      1 <1>        -0.556000 
     16 C          -1.224944   -0.023800   -0.080295 C.ar      1 <1>         0.264200 
     17 C          -2.504464    0.729531   -0.452064 C.3       1 <1>         0.025900 
     18 O          -3.252409    0.040412   -1.450777 O.3       1 <1>        -0.631100 
     19 C          -3.403752    0.974326    0.754123 C.ar      1 <1>         0.103800 
     20 C          -2.877521    1.594941    1.896026 C.ar      1 <1>        -0.173000 
     21 C          -3.683493    1.863397    3.000145 C.ar      1 <1>        -0.200900 
     22 C          -5.025899    1.502781    2.949339 C.ar      1 <1>         0.383000 
     23 F          -5.812413    1.757547    4.016290 F         1 <1>        -0.297000 
     24 C          -5.578246    0.890357    1.832314 C.ar      1 <1>        -0.199200 
     25 C          -4.759300    0.629855    0.731779 C.ar      1 <1>        -0.176200 
     26 H          -2.896520   -2.374106   -0.657539 H         1 <1>         0.179900 
     27 H          -3.160221   -1.896307    1.010981 H         1 <1>         0.180100 
     28 H          -2.119983   -3.286377    0.655498 H         1 <1>         0.151900 
     29 H           0.195442   -2.936511    0.820242 H         1 <1>         0.150300 
     30 H           3.004424    0.254346    0.482592 H         1 <1>         0.347800 
     31 H           4.622070    1.812264    0.372605 H         1 <1>         0.138000 
     32 H           5.332413    4.130134   -0.063661 H         1 <1>         0.158500 
     33 H           1.261425    5.201958   -0.951643 H         1 <1>         0.157400 
     34 H           0.546479    2.873789   -0.515011 H         1 <1>         0.182100 
     35 H          -2.173439    1.703850   -0.839256 H         1 <1>         0.160500 
     36 H          -2.720902    0.038991   -2.261697 H         1 <1>         0.404500 
     37 H          -1.827992    1.875678    1.922374 H         1 <1>         0.150300 
     38 H          -3.289122    2.344381    3.889133 H         1 <1>         0.150300 
     39 H          -6.631159    0.627694    1.830215 H         1 <1>         0.149000 
     40 H          -5.173519    0.160437   -0.152676 H         1 <1>         0.165500 
@<TRIPOS>BOND
     1   21   38 1    
     2    8   31 1    
     3   22   23 1    
     4    6   30 1    
     5   21   22 ar   
     6   20   21 ar   
     7    3   29 1    
     8    3    4 ar   
     9    5    4 ar   
    10    9   32 1    
    11    8    9 ar   
    12    7    8 ar   
    13   20   37 1    
    14   24   22 ar   
    15    2    3 ar   
    16    5    6 1    
    17    6    7 1    
    18    9   10 ar   
    19   19   20 ar   
    20   15    5 ar   
    21    7   14 ar   
    22    1   28 1    
    23    1   27 1    
    24    2    1 1    
    25   16    2 ar   
    26   10   11 1    
    27   13   10 ar   
    28    1   26 1    
    29   16   15 ar   
    30   24   39 1    
    31   25   24 ar   
    32   14   13 ar   
    33   14   34 1    
    34   11   12 3    
    35   17   16 1    
    36   19   25 ar   
    37   19   17 1    
    38   13   33 1    
    39   25   40 1    
    40   17   35 1    
    41   17   18 1    
    42   18   36 1    
@<TRIPOS>SUBSTRUCTURE
     1 ****       38 TEMP              0 ****  ****    0 ROOT 
