#	Name:			LY-2014-EJPS-334-2-1p
#	Creating user name:	Administrator
#	Creation time:		Sun Jul 05 16:39:08 2020

#	Modifying user name:	Administrator
#	Modification time:	Sun Jul 05 16:40:47 2020

@<TRIPOS>MOLECULE
LY-2014-EJPS-334-2-1p
   46    49     1     0     0
SMALL
MULLIKEN_CHARGES
INVALID_CHARGES
Gaussian 16 #p B3LYP/6-31G* opt
@<TRIPOS>ATOM
      1 N           8.718750   -0.167664   -1.477648 N.1       1 <1>        -0.482600 
      2 C           7.583064   -0.009757   -1.276790 C.1       1 <1>         0.228500 
      3 C           6.187130    0.186173   -1.030229 C.ar      1 <1>         0.132200 
      4 C           5.615597    1.465630   -1.145296 C.ar      1 <1>        -0.139800 
      5 C           4.263867    1.647452   -0.904863 C.ar      1 <1>        -0.205700 
      6 C           3.439385    0.563028   -0.542528 C.ar      1 <1>         0.382100 
      7 N           2.089959    0.850623   -0.323696 N.pl3     1 <1>        -0.765900 
      8 C           1.019474    0.066625    0.047309 C.ar      1 <1>         0.699700 
      9 N           1.186440   -1.243590    0.270499 N.ar      1 <1>        -0.476300 
     10 C           0.084747   -1.911935    0.629386 C.ar      1 <1>         0.075600 
     11 C          -1.159302   -1.310739    0.771124 C.ar      1 <1>        -0.200200 
     12 C          -1.221390    0.064410    0.514918 C.ar      1 <1>         0.363000 
     13 C          -2.531419    0.837061    0.607820 C.3       1 <1>        -0.143200 
     14 N          -2.270414    2.141689    1.210282 N.3       1 <1>        -0.550700 
     15 C          -3.415243    2.967776    1.491421 C.3       1 <1>         0.052300 
     16 C          -3.246490    4.456952    1.569507 C.3       1 <1>        -0.334100 
     17 C          -4.104596    3.860123    0.473535 C.3       1 <1>        -0.318300 
     18 C          -3.239044    0.846708   -0.758250 C.ar      1 <1>         0.200500 
     19 C          -2.605575    1.357829   -1.901376 C.ar      1 <1>        -0.189600 
     20 C          -3.261691    1.391850   -3.126069 C.ar      1 <1>        -0.136000 
     21 C          -4.578596    0.909386   -3.230769 C.ar      1 <1>         0.128000 
     22 C          -5.260592    0.943204   -4.491532 C.1       1 <1>         0.238200 
     23 N          -5.813783    0.971390   -5.514597 N.1       1 <1>        -0.475300 
     24 C          -5.219873    0.393081   -2.094597 C.ar      1 <1>        -0.133600 
     25 C          -4.547819    0.364949   -0.875277 C.ar      1 <1>        -0.195400 
     26 N          -0.139300    0.752859    0.148737 N.ar      1 <1>        -0.568300 
     27 C           4.008885   -0.718177   -0.426727 C.ar      1 <1>        -0.158900 
     28 C           5.365679   -0.894242   -0.669365 C.ar      1 <1>        -0.152800 
     29 H           6.236999    2.310738   -1.423077 H         1 <1>         0.159700 
     30 H           3.833227    2.642050   -0.996592 H         1 <1>         0.136300 
     31 H           1.821205    1.819041   -0.441312 H         1 <1>         0.342800 
     32 H           0.215995   -2.976706    0.813969 H         1 <1>         0.159300 
     33 H          -2.034793   -1.876778    1.068448 H         1 <1>         0.148200 
     34 H          -3.185895    0.290804    1.299136 H         1 <1>         0.146800 
     35 H          -1.542503    2.630302    0.697053 H         1 <1>         0.312500 
     36 H          -4.060467    2.518510    2.246242 H         1 <1>         0.141500 
     37 H          -2.280640    4.869612    1.285093 H         1 <1>         0.150200 
     38 H          -3.724855    4.991609    2.385195 H         1 <1>         0.159300 
     39 H          -5.183326    3.982107    0.532444 H         1 <1>         0.151400 
     40 H          -3.709325    3.875442   -0.537879 H         1 <1>         0.154200 
     41 H          -1.585040    1.722435   -1.829467 H         1 <1>         0.152700 
     42 H          -2.764449    1.785011   -4.007102 H         1 <1>         0.160700 
     43 H          -6.236089    0.020275   -2.173659 H         1 <1>         0.160900 
     44 H          -5.053533   -0.033411    0.001087 H         1 <1>         0.140100 
     45 H           3.384227   -1.554295   -0.148317 H         1 <1>         0.190000 
     46 H           5.799036   -1.885165   -0.578207 H         1 <1>         0.160000 
@<TRIPOS>BOND
     1    4   29 1    
     2   16   37 1    
     3    5   30 1    
     4   17   40 1    
     5   16   38 1    
     6   17   16 1    
     7   15   16 1    
     8   20   42 1    
     9    5    4 ar   
    10    4    3 ar   
    11   17   39 1    
    12   15   17 1    
    13    6    5 ar   
    14    7   31 1    
    15   22   23 3    
    16   19   41 1    
    17   19   20 ar   
    18   20   21 ar   
    19   14   35 1    
    20    2    1 3    
    21   21   22 1    
    22    3    2 1    
    23   14   15 1    
    24   15   36 1    
    25   28    3 ar   
    26   18   19 ar   
    27   24   21 ar   
    28    7    6 1    
    29    6   27 ar   
    30    8    7 1    
    31   13   14 1    
    32   26    8 ar   
    33   12   26 ar   
    34   13   18 1    
    35   18   25 ar   
    36   25   24 ar   
    37   24   43 1    
    38   27   28 ar   
    39   28   46 1    
    40    8    9 ar   
    41   27   45 1    
    42   13   12 1    
    43   13   34 1    
    44   25   44 1    
    45   12   11 ar   
    46    9   10 ar   
    47   11   10 ar   
    48   11   33 1    
    49   10   32 1    
@<TRIPOS>SUBSTRUCTURE
     1 ****       23 TEMP              0 ****  ****    0 ROOT 
