#	Name:			LY-2014-EJPS-334-2-1h
#	Creating user name:	Administrator
#	Creation time:		Sun Jul 05 16:39:07 2020

#	Modifying user name:	Administrator
#	Modification time:	Sun Jul 05 16:40:47 2020

@<TRIPOS>MOLECULE
LY-2014-EJPS-334-2-1h
   45    48     1     0     0
SMALL
MULLIKEN_CHARGES
INVALID_CHARGES
Gaussian 16 #p B3LYP/6-31G* opt
@<TRIPOS>ATOM
      1 N           8.685104    0.264377   -1.471411 N.1       1 <1>        -0.486000 
      2 C           7.541533    0.359795   -1.274561 C.1       1 <1>         0.226600 
      3 C           6.136453    0.479090   -1.032919 C.ar      1 <1>         0.130600 
      4 C           5.382013   -0.634491   -0.627775 C.ar      1 <1>        -0.153300 
      5 C           4.017303   -0.532523   -0.389114 C.ar      1 <1>        -0.160400 
      6 C           3.368938    0.706084   -0.553640 C.ar      1 <1>         0.383700 
      7 N           2.007547    0.917772   -0.339604 N.pl3     1 <1>        -0.766900 
      8 C           0.981412    0.079192    0.047627 C.ar      1 <1>         0.691900 
      9 N           1.224511   -1.215398    0.297520 N.ar      1 <1>        -0.476200 
     10 C           0.157245   -1.936930    0.655698 C.ar      1 <1>         0.069300 
     11 C          -1.123477   -1.408375    0.769733 C.ar      1 <1>        -0.196800 
     12 C          -1.257422   -0.042177    0.494632 C.ar      1 <1>         0.299900 
     13 C          -2.580769    0.715415    0.608030 C.3       1 <1>        -0.095100 
     14 N          -3.554335   -0.041174    1.398985 N.3       1 <1>        -0.571300 
     15 C          -4.724499    0.713143    1.782614 C.3       1 <1>         0.027900 
     16 C          -5.988498    0.560577    0.974182 C.3       1 <1>        -0.298900 
     17 C          -5.886686   -0.062219    2.344780 C.3       1 <1>        -0.328800 
     18 C          -3.110413    1.139359   -0.766134 C.ar      1 <1>         0.214200 
     19 C          -3.109370    2.509613   -1.067182 C.ar      1 <1>        -0.185400 
     20 C          -3.548235    3.005696   -2.292390 C.ar      1 <1>        -0.125000 
     21 C          -4.007731    2.121456   -3.266471 C.ar      1 <1>        -0.124400 
     22 C          -4.019623    0.753630   -3.003043 C.ar      1 <1>        -0.126000 
     23 C          -3.574017    0.272951   -1.770173 C.ar      1 <1>        -0.131900 
     24 CL         -3.624563   -1.474931   -1.552374 Cl        1 <1>        -0.013300 
     25 N          -0.208467    0.703165    0.140343 N.ar      1 <1>        -0.544300 
     26 C           4.126776    1.823685   -0.960819 C.ar      1 <1>        -0.205700 
     27 C           5.486797    1.715461   -1.197042 C.ar      1 <1>        -0.140500 
     28 H           5.875185   -1.592810   -0.498976 H         1 <1>         0.157400 
     29 H           3.443887   -1.393740   -0.078374 H         1 <1>         0.189000 
     30 H           1.673786    1.859982   -0.498653 H         1 <1>         0.345400 
     31 H           0.344304   -2.990531    0.856538 H         1 <1>         0.155200 
     32 H          -1.975882   -2.019310    1.034401 H         1 <1>         0.169500 
     33 H          -2.311235    1.662252    1.108850 H         1 <1>         0.141100 
     34 H          -3.087118   -0.369090    2.243677 H         1 <1>         0.303300 
     35 H          -4.545756    1.704246    2.215409 H         1 <1>         0.123200 
     36 H          -6.619003    1.435668    0.843483 H         1 <1>         0.149700 
     37 H          -5.947871   -0.107523    0.120660 H         1 <1>         0.174400 
     38 H          -5.777732   -1.141918    2.392526 H         1 <1>         0.160400 
     39 H          -6.446718    0.375897    3.165998 H         1 <1>         0.151600 
     40 H          -2.751456    3.200948   -0.309047 H         1 <1>         0.137700 
     41 H          -3.532292    4.075253   -2.481090 H         1 <1>         0.137800 
     42 H          -4.355821    2.487108   -4.228337 H         1 <1>         0.141800 
     43 H          -4.370668    0.048013   -3.748529 H         1 <1>         0.156300 
     44 H           3.635405    2.785190   -1.091481 H         1 <1>         0.135300 
     45 H           6.055116    2.585455   -1.509961 H         1 <1>         0.156800 
@<TRIPOS>BOND
     1   15   35 1    
     2   19   40 1    
     3   17   39 1    
     4   13   33 1    
     5   26   44 1    
     6   15   17 1    
     7   15   16 1    
     8   14   15 1    
     9   16   36 1    
    10   20   41 1    
    11   27   45 1    
    12   16   17 1    
    13   17   38 1    
    14    7   30 1    
    15   19   20 ar   
    16   18   19 ar   
    17   14   34 1    
    18   26   27 ar   
    19    6   26 ar   
    20   13   14 1    
    21   12   13 1    
    22   13   18 1    
    23   27    3 ar   
    24   16   37 1    
    25   20   21 ar   
    26   25   12 ar   
    27    8   25 ar   
    28    7    6 1    
    29    7    8 1    
    30    6    5 ar   
    31   12   11 ar   
    32   18   23 ar   
    33    8    9 ar   
    34    3    2 1    
    35    3    4 ar   
    36    2    1 3    
    37    5    4 ar   
    38    5   29 1    
    39    4   28 1    
    40   11   32 1    
    41   11   10 ar   
    42    9   10 ar   
    43   21   42 1    
    44   21   22 ar   
    45   10   31 1    
    46   23   22 ar   
    47   23   24 1    
    48   22   43 1    
@<TRIPOS>SUBSTRUCTURE
     1 ****       30 TEMP              0 ****  ****    0 ROOT 
