#	Name:			LY-2014-EJPS-334-2-1d
#	Creating user name:	Administrator
#	Creation time:		Sun Jul 05 16:39:07 2020

#	Modifying user name:	Administrator
#	Modification time:	Sun Jul 05 16:40:47 2020

@<TRIPOS>MOLECULE
LY-2014-EJPS-334-2-1d
   45    48     1     0     0
SMALL
MULLIKEN_CHARGES
INVALID_CHARGES
Gaussian 16 #p B3LYP/6-31G* opt
@<TRIPOS>ATOM
      1 N           8.933217   -0.515894    0.749018 N.1       1 <1>        -0.483800 
      2 C           7.792583   -0.308612    0.643802 C.1       1 <1>         0.227900 
      3 C           6.390832   -0.051798    0.513890 C.ar      1 <1>         0.131600 
      4 C           5.455572   -1.087261    0.674030 C.ar      1 <1>        -0.153100 
      5 C           4.091760   -0.851962    0.550391 C.ar      1 <1>        -0.159500 
      6 C           3.630337    0.445065    0.259444 C.ar      1 <1>         0.382500 
      7 N           2.285284    0.790061    0.114015 N.pl3     1 <1>        -0.765800 
      8 C           1.121963    0.055217    0.199375 C.ar      1 <1>         0.700500 
      9 N           1.165979   -1.255210    0.465957 N.ar      1 <1>        -0.477100 
     10 C          -0.024023   -1.864653    0.528597 C.ar      1 <1>         0.069600 
     11 C          -1.233512   -1.210552    0.335789 C.ar      1 <1>        -0.198100 
     12 C          -1.166066    0.161836    0.057492 C.ar      1 <1>         0.338300 
     13 C          -2.414120    1.009097   -0.251206 C.3       1 <1>        -0.100900 
     14 N          -2.141866    2.399527    0.081860 N.3       1 <1>        -0.586000 
     15 C          -2.840089    3.445557   -0.637822 C.3       1 <1>         0.031600 
     16 C          -4.132455    3.237982   -1.373967 C.3       1 <1>        -0.320500 
     17 C          -2.876892    3.575928   -2.150380 C.3       1 <1>        -0.327100 
     18 C          -3.653743    0.477756    0.469201 C.ar      1 <1>         0.160600 
     19 C          -3.923915    0.854555    1.789999 C.ar      1 <1>        -0.157100 
     20 C          -5.036590    0.339841    2.455397 C.ar      1 <1>        -0.133900 
     21 C          -5.899838   -0.555518    1.819298 C.ar      1 <1>        -0.195700 
     22 C          -5.618823   -0.913577    0.507184 C.ar      1 <1>         0.383600 
     23 F          -6.444398   -1.770769   -0.131582 F         1 <1>        -0.298600 
     24 C          -4.516132   -0.414214   -0.178023 C.ar      1 <1>        -0.274100 
     25 N           0.008404    0.788469   -0.011375 N.ar      1 <1>        -0.578600 
     26 C           4.569213    1.484464    0.098858 C.ar      1 <1>        -0.205800 
     27 C           5.927207    1.243469    0.223352 C.ar      1 <1>        -0.140100 
     28 H           5.804933   -2.090121    0.898663 H         1 <1>         0.159100 
     29 H           3.378695   -1.653768    0.675013 H         1 <1>         0.190000 
     30 H           2.098924    1.762756   -0.093614 H         1 <1>         0.344200 
     31 H           0.002084   -2.930464    0.748432 H         1 <1>         0.158400 
     32 H          -2.177014   -1.735281    0.407310 H         1 <1>         0.162400 
     33 H          -2.579338    0.856653   -1.337065 H         1 <1>         0.148100 
     34 H          -1.137395    2.545731    0.006899 H         1 <1>         0.326500 
     35 H          -2.767279    4.388206   -0.098067 H         1 <1>         0.143000 
     36 H          -4.905340    3.994313   -1.266342 H         1 <1>         0.156200 
     37 H          -4.524302    2.230218   -1.468692 H         1 <1>         0.162000 
     38 H          -2.775678    4.565333   -2.588853 H         1 <1>         0.150300 
     39 H          -2.431685    2.781334   -2.744797 H         1 <1>         0.149800 
     40 H          -3.264020    1.566977    2.273134 H         1 <1>         0.153000 
     41 H          -5.239801    0.639373    3.479936 H         1 <1>         0.141600 
     42 H          -6.774399   -0.964544    2.314199 H         1 <1>         0.148000 
     43 H          -4.350118   -0.720021   -1.207588 H         1 <1>         0.141500 
     44 H           4.222526    2.490530   -0.126023 H         1 <1>         0.136700 
     45 H           6.637072    2.054424    0.096826 H         1 <1>         0.158700 
@<TRIPOS>BOND
     1   17   39 1    
     2   24   43 1    
     3   13   33 1    
     4   22   23 1    
     5   17   38 1    
     6   16   17 1    
     7   15   17 1    
     8   16   37 1    
     9   10   31 1    
    10   24   22 ar   
    11   18   24 ar   
    12   11   32 1    
    13   11   10 ar   
    14   10    9 ar   
    15   12   11 ar   
    16   16   36 1    
    17   15   16 1    
    18    8    9 ar   
    19    5   29 1    
    20    4   28 1    
    21   22   21 ar   
    22   13   12 1    
    23   12   25 ar   
    24   13   18 1    
    25   14   13 1    
    26    5    4 ar   
    27    6    5 ar   
    28   25    8 ar   
    29    8    7 1    
    30    4    3 ar   
    31    7    6 1    
    32    7   30 1    
    33    6   26 ar   
    34    3    2 1    
    35   27    3 ar   
    36    2    1 3    
    37   18   19 ar   
    38   26   27 ar   
    39   26   44 1    
    40   27   45 1    
    41   15   14 1    
    42   15   35 1    
    43   14   34 1    
    44   21   42 1    
    45   21   20 ar   
    46   19   20 ar   
    47   19   40 1    
    48   20   41 1    
@<TRIPOS>SUBSTRUCTURE
     1 ****       39 TEMP              0 ****  ****    0 ROOT 
