#	Name:			LY-2014-EJPS-334-2-1y
#	Creating user name:	Administrator
#	Creation time:		Sun Jul 05 16:39:08 2020

#	Modifying user name:	Administrator
#	Modification time:	Sun Jul 05 16:40:47 2020

@<TRIPOS>MOLECULE
LY-2014-EJPS-334-2-1y
   48    51     1     0     0
SMALL
MULLIKEN_CHARGES
INVALID_CHARGES
Gaussian 16 #p B3LYP/6-31G* opt
@<TRIPOS>ATOM
      1 C          -2.387087   -2.125975    1.160266 C.3       1 <1>        -0.549200 
      2 C          -1.181179   -1.313440    0.766117 C.ar      1 <1>         0.119600 
      3 C           0.073813   -1.900703    0.622475 C.ar      1 <1>         0.019400 
      4 N           1.184838   -1.243697    0.271530 N.ar      1 <1>        -0.476600 
      5 C           1.028446    0.064329    0.049578 C.ar      1 <1>         0.695200 
      6 N           2.103946    0.847657   -0.322019 N.pl3     1 <1>        -0.767900 
      7 C           3.448459    0.553369   -0.545735 C.ar      1 <1>         0.383700 
      8 C           4.010327   -0.732357   -0.432954 C.ar      1 <1>        -0.160400 
      9 C           5.364435   -0.918082   -0.681113 C.ar      1 <1>        -0.153300 
     10 C           6.193080    0.156398   -1.044641 C.ar      1 <1>         0.130700 
     11 C           7.586117   -0.049749   -1.297507 C.1       1 <1>         0.226800 
     12 N           8.719862   -0.215824   -1.503864 N.1       1 <1>        -0.485400 
     13 C           5.629918    1.440108   -1.156192 C.ar      1 <1>        -0.140300 
     14 C           4.280785    1.631906   -0.910328 C.ar      1 <1>        -0.206300 
     15 N          -0.126211    0.751201    0.153670 N.ar      1 <1>        -0.574000 
     16 C          -1.217579    0.074613    0.514464 C.ar      1 <1>         0.307900 
     17 C          -2.510393    0.879641    0.595212 C.3       1 <1>        -0.134900 
     18 N          -2.206432    2.222212    1.086504 N.3       1 <1>        -0.551500 
     19 C          -3.325556    3.097696    1.309848 C.3       1 <1>         0.055600 
     20 C          -3.117654    4.583706    1.263631 C.3       1 <1>        -0.335300 
     21 C          -4.003690    3.921949    0.228857 C.3       1 <1>        -0.316200 
     22 C          -3.265514    0.792420   -0.743179 C.ar      1 <1>         0.185800 
     23 C          -4.608129    0.397303   -0.772496 C.ar      1 <1>        -0.193900 
     24 C          -5.325369    0.348274   -1.969518 C.ar      1 <1>        -0.196100 
     25 C          -4.677001    0.701764   -3.145298 C.ar      1 <1>         0.380400 
     26 F          -5.357795    0.658862   -4.309591 F         1 <1>        -0.296000 
     27 C          -3.342940    1.097706   -3.157932 C.ar      1 <1>        -0.196600 
     28 C          -2.644743    1.138665   -1.952948 C.ar      1 <1>        -0.185700 
     29 H          -2.806618   -1.798728    2.120154 H         1 <1>         0.170700 
     30 H          -2.120176   -3.182647    1.262455 H         1 <1>         0.164000 
     31 H          -3.186608   -2.054515    0.413732 H         1 <1>         0.176200 
     32 H           0.196869   -2.968365    0.803526 H         1 <1>         0.147400 
     33 H           1.838174    1.817275   -0.435054 H         1 <1>         0.341300 
     34 H           3.379961   -1.563640   -0.152350 H         1 <1>         0.189100 
     35 H           5.790834   -1.912322   -0.592171 H         1 <1>         0.157800 
     36 H           6.256397    2.281017   -1.435599 H         1 <1>         0.157300 
     37 H           3.857063    2.629567   -0.999588 H         1 <1>         0.134600 
     38 H          -3.153539    0.408971    1.349207 H         1 <1>         0.142000 
     39 H          -1.476280    2.646534    0.522261 H         1 <1>         0.309900 
     40 H          -3.974646    2.729886    2.104680 H         1 <1>         0.137400 
     41 H          -2.144294    4.945278    0.938006 H         1 <1>         0.148200 
     42 H          -3.572858    5.196649    2.036654 H         1 <1>         0.155700 
     43 H          -5.078107    4.077775    0.287671 H         1 <1>         0.147500 
     44 H          -3.620438    3.840450   -0.784009 H         1 <1>         0.154300 
     45 H          -5.109166    0.130787    0.155408 H         1 <1>         0.135000 
     46 H          -6.367234    0.046111   -1.999557 H         1 <1>         0.148800 
     47 H          -2.871749    1.360536   -4.099533 H         1 <1>         0.149700 
     48 H          -1.600732    1.439281   -1.952372 H         1 <1>         0.147800 
@<TRIPOS>BOND
     1    1   29 1    
     2    1   30 1    
     3    1   31 1    
     4    2    1 1    
     5    3   32 1    
     6    3    2 ar   
     7    4    3 ar   
     8   16    2 ar   
     9   17   38 1    
    10   19   40 1    
    11    5    4 ar   
    12   16   17 1    
    13   15   16 ar   
    14   23   45 1    
    15   17   18 1    
    16   17   22 1    
    17   18   19 1    
    18   18   39 1    
    19    8   34 1    
    20   19   20 1    
    21   19   21 1    
    22   20   42 1    
    23    5   15 ar   
    24    6    5 1    
    25    9   35 1    
    26    8    9 ar   
    27    7    8 ar   
    28   20   41 1    
    29   21   20 1    
    30   22   23 ar   
    31   23   24 ar   
    32    9   10 ar   
    33    6    7 1    
    34    6   33 1    
    35   22   28 ar   
    36    7   14 ar   
    37   21   43 1    
    38   21   44 1    
    39   10   11 1    
    40   10   13 ar   
    41   24   46 1    
    42   24   25 ar   
    43   11   12 3    
    44   14   13 ar   
    45   14   37 1    
    46   13   36 1    
    47   28   48 1    
    48   28   27 ar   
    49   25   27 ar   
    50   25   26 1    
    51   27   47 1    
@<TRIPOS>SUBSTRUCTURE
     1 ****       45 TEMP              0 ****  ****    0 ROOT 
