#	Name:			LY-2014-EJPS-334-2-1c
#	Creating user name:	Administrator
#	Creation time:		Sun Jul 05 16:39:07 2020

#	Modifying user name:	Administrator
#	Modification time:	Sun Jul 05 16:40:47 2020

@<TRIPOS>MOLECULE
LY-2014-EJPS-334-2-1c
   45    48     1     0     0
SMALL
MULLIKEN_CHARGES
INVALID_CHARGES
Gaussian 16 #p B3LYP/6-31G* opt
@<TRIPOS>ATOM
      1 N           8.713453    1.028856   -0.597265 N.1       1 <1>        -0.485900 
      2 C           7.551481    1.014856   -0.525801 C.1       1 <1>         0.226700 
      3 C           6.123547    0.999238   -0.438431 C.ar      1 <1>         0.130600 
      4 C           5.380208    2.165635   -0.692998 C.ar      1 <1>        -0.140700 
      5 C           3.998348    2.142940   -0.606882 C.ar      1 <1>        -0.205900 
      6 C           3.311669    0.959559   -0.264730 C.ar      1 <1>         0.382900 
      7 N           1.920986    1.037596   -0.205077 N.pl3     1 <1>        -0.765600 
      8 C           0.946616    0.106453    0.094013 C.ar      1 <1>         0.687200 
      9 N           1.281368   -1.151211    0.402855 N.ar      1 <1>        -0.476900 
     10 C           0.250375   -1.962991    0.676975 C.ar      1 <1>         0.066600 
     11 C          -1.074852   -1.555451    0.642054 C.ar      1 <1>        -0.196800 
     12 C          -1.309674   -0.213601    0.299835 C.ar      1 <1>         0.344500 
     13 C          -2.727300    0.368733    0.338030 C.3       1 <1>        -0.153100 
     14 N          -3.730034   -0.663785   -0.012554 N.3       1 <1>        -0.564500 
     15 C          -4.009879   -0.877698   -1.414131 C.3       1 <1>         0.017000 
     16 C          -4.633243   -2.196709   -1.789756 C.3       1 <1>        -0.322600 
     17 C          -3.205609   -1.901479   -2.180770 C.3       1 <1>        -0.310700 
     18 C          -2.894274    1.707100   -0.374847 C.ar      1 <1>         0.199000 
     19 C          -2.461040    1.920388   -1.692690 C.ar      1 <1>        -0.160300 
     20 C          -2.697560    3.130378   -2.342298 C.ar      1 <1>        -0.208600 
     21 C          -3.372858    4.137161   -1.660449 C.ar      1 <1>         0.379000 
     22 F          -3.600414    5.312195   -2.284843 F         1 <1>        -0.297300 
     23 C          -3.814643    3.967869   -0.355224 C.ar      1 <1>        -0.195900 
     24 C          -3.569398    2.747181    0.275701 C.ar      1 <1>        -0.202700 
     25 N          -0.303078    0.615394    0.034008 N.ar      1 <1>        -0.550000 
     26 C           4.053741   -0.209053   -0.009321 C.ar      1 <1>        -0.160700 
     27 C           5.439876   -0.179562   -0.097550 C.ar      1 <1>        -0.153400 
     28 H           5.893324    3.084584   -0.957414 H         1 <1>         0.157200 
     29 H           3.434229    3.051271   -0.805678 H         1 <1>         0.137100 
     30 H           1.515381    1.941784   -0.412418 H         1 <1>         0.348000 
     31 H           0.512985   -2.987307    0.936196 H         1 <1>         0.153000 
     32 H          -1.896052   -2.223348    0.865473 H         1 <1>         0.160900 
     33 H          -2.905318    0.563527    1.405589 H         1 <1>         0.165100 
     34 H          -4.602139   -0.432496    0.458565 H         1 <1>         0.305900 
     35 H          -4.342320   -0.012253   -1.991089 H         1 <1>         0.146700 
     36 H          -4.789686   -2.911562   -0.987101 H         1 <1>         0.158300 
     37 H          -5.398656   -2.202131   -2.560644 H         1 <1>         0.154500 
     38 H          -2.421513   -2.429242   -1.649700 H         1 <1>         0.162100 
     39 H          -2.986075   -1.693582   -3.224505 H         1 <1>         0.151900 
     40 H          -1.920740    1.137440   -2.214639 H         1 <1>         0.146200 
     41 H          -2.364546    3.303837   -3.360553 H         1 <1>         0.147400 
     42 H          -4.332057    4.777756    0.148317 H         1 <1>         0.147600 
     43 H          -3.909029    2.608038    1.300042 H         1 <1>         0.130300 
     44 H           3.534778   -1.119238    0.253840 H         1 <1>         0.188800 
     45 H           6.005793   -1.084428    0.100714 H         1 <1>         0.157200 
@<TRIPOS>BOND
     1   24   43 1    
     2   13   33 1    
     3   23   42 1    
     4   24   23 ar   
     5   18   24 ar   
     6   14   34 1    
     7   23   21 ar   
     8   13   12 1    
     9   13   18 1    
    10   14   13 1    
    11   11   32 1    
    12   12   11 ar   
    13   11   10 ar   
    14   12   25 ar   
    15   10   31 1    
    16   10    9 ar   
    17   25    8 ar   
    18   18   19 ar   
    19   15   14 1    
    20    8    9 ar   
    21    8    7 1    
    22    7   30 1    
    23    7    6 1    
    24   26   44 1    
    25    6   26 ar   
    26    6    5 ar   
    27   26   27 ar   
    28    5   29 1    
    29    5    4 ar   
    30   27   45 1    
    31   27    3 ar   
    32   21   22 1    
    33   20   21 ar   
    34    4    3 ar   
    35    4   28 1    
    36    3    2 1    
    37    2    1 3    
    38   19   20 ar   
    39   19   40 1    
    40   16   36 1    
    41   15   35 1    
    42   15   16 1    
    43   15   17 1    
    44   20   41 1    
    45   16   17 1    
    46   16   37 1    
    47   17   38 1    
    48   17   39 1    
@<TRIPOS>SUBSTRUCTURE
     1 ****       32 TEMP              0 ****  ****    0 ROOT 
