#	Name:			LY-2014-EJPS-334-2-1i
#	Creating user name:	Administrator
#	Creation time:		Sun Jul 05 16:39:07 2020

#	Modifying user name:	Administrator
#	Modification time:	Sun Jul 05 16:40:47 2020

@<TRIPOS>MOLECULE
LY-2014-EJPS-334-2-1i
   45    48     1     0     0
SMALL
MULLIKEN_CHARGES
INVALID_CHARGES
Gaussian 16 #p B3LYP/6-31G* opt
@<TRIPOS>ATOM
      1 N           8.732435    0.992065    1.042536 N.1       1 <1>        -0.485000 
      2 C           7.578267    0.985921    0.890099 C.1       1 <1>         0.227200 
      3 C           6.159878    0.979962    0.701836 C.ar      1 <1>         0.131100 
      4 C           5.483538    2.157987    0.337840 C.ar      1 <1>        -0.140300 
      5 C           4.110763    2.144218    0.156518 C.ar      1 <1>        -0.205500 
      6 C           3.367203    0.958927    0.331323 C.ar      1 <1>         0.383100 
      7 N           1.990595    1.048058    0.123258 N.pl3     1 <1>        -0.765100 
      8 C           0.972070    0.121326    0.206870 C.ar      1 <1>         0.691300 
      9 N           1.239481   -1.147754    0.547886 N.ar      1 <1>        -0.476200 
     10 C           0.178711   -1.959041    0.601224 C.ar      1 <1>         0.071300 
     11 C          -1.119219   -1.542519    0.328188 C.ar      1 <1>        -0.207600 
     12 C          -1.283250   -0.196516   -0.017897 C.ar      1 <1>         0.347600 
     13 C          -2.640656    0.433626   -0.381981 C.3       1 <1>        -0.141900 
     14 N          -3.757558   -0.476472   -0.602834 N.3       1 <1>        -0.574600 
     15 C          -3.699424   -1.258276   -1.811338 C.3       1 <1>         0.023300 
     16 C          -5.011503   -1.723251   -2.385906 C.3       1 <1>        -0.320400 
     17 C          -4.238346   -0.623521   -3.071866 C.3       1 <1>        -0.305600 
     18 C          -3.007823    1.561680    0.585633 C.ar      1 <1>         0.227900 
     19 C          -2.991868    2.882289    0.116001 C.ar      1 <1>        -0.183400 
     20 C          -3.318994    3.971197    0.919612 C.ar      1 <1>        -0.124300 
     21 C          -3.676132    3.740739    2.245417 C.ar      1 <1>        -0.064000 
     22 CL         -4.096680    5.089361    3.286302 Cl        1 <1>        -0.006500 
     23 C          -3.705602    2.448514    2.762228 C.ar      1 <1>        -0.125300 
     24 C          -3.369886    1.382320    1.928328 C.ar      1 <1>        -0.130700 
     25 CL         -3.422917   -0.224640    2.659329 Cl        1 <1>        -0.016300 
     26 N          -0.239742    0.633162   -0.085335 N.ar      1 <1>        -0.549200 
     27 C           4.042031   -0.220977    0.696299 C.ar      1 <1>        -0.160000 
     28 C           5.419344   -0.200671    0.876741 C.ar      1 <1>        -0.153200 
     29 H           6.040971    3.078661    0.199506 H         1 <1>         0.157800 
     30 H           3.598713    3.061568   -0.124598 H         1 <1>         0.136200 
     31 H           1.638694    1.961278   -0.135032 H         1 <1>         0.345700 
     32 H           0.385880   -2.991728    0.877140 H         1 <1>         0.155700 
     33 H          -1.955255   -2.227561    0.387356 H         1 <1>         0.142700 
     34 H          -2.462774    0.920063   -1.347247 H         1 <1>         0.173500 
     35 H          -3.955400   -1.048098    0.212820 H         1 <1>         0.320700 
     36 H          -2.847551   -1.931790   -1.945901 H         1 <1>         0.131400 
     37 H          -5.909632   -1.437318   -1.846771 H         1 <1>         0.164600 
     38 H          -5.049160   -2.704341   -2.850910 H         1 <1>         0.153300 
     39 H          -3.741138   -0.843588   -4.012372 H         1 <1>         0.152800 
     40 H          -4.629781    0.385648   -2.983750 H         1 <1>         0.160500 
     41 H          -2.711742    3.060583   -0.918140 H         1 <1>         0.149000 
     42 H          -3.298547    4.980550    0.523929 H         1 <1>         0.162200 
     43 H          -3.983300    2.269742    3.793934 H         1 <1>         0.179400 
     44 H           3.479546   -1.133041    0.833449 H         1 <1>         0.188900 
     45 H           5.933350   -1.114405    1.158188 H         1 <1>         0.158000 
@<TRIPOS>BOND
     1   17   39 1    
     2   17   40 1    
     3   19   41 1    
     4   20   42 1    
     5   16   17 1    
     6   15   17 1    
     7    5   30 1    
     8    4   29 1    
     9   13   34 1    
    10   19   20 ar   
    11   18   19 ar   
    12   20   21 ar   
    13    7   31 1    
    14    5    4 ar   
    15    6    5 ar   
    16    4    3 ar   
    17   16   38 1    
    18   15   16 1    
    19   16   37 1    
    20   15   36 1    
    21   14   15 1    
    22    7    6 1    
    23    8    7 1    
    24   13   18 1    
    25   13   14 1    
    26   12   13 1    
    27   26    8 ar   
    28   26   12 ar   
    29    6   27 ar   
    30   18   24 ar   
    31   21   22 1    
    32   21   23 ar   
    33   14   35 1    
    34    3    2 1    
    35    3   28 ar   
    36    2    1 3    
    37    8    9 ar   
    38   12   11 ar   
    39   27   28 ar   
    40   27   44 1    
    41   28   45 1    
    42   24   23 ar   
    43   24   25 1    
    44   23   43 1    
    45    9   10 ar   
    46   11   10 ar   
    47   11   33 1    
    48   10   32 1    
@<TRIPOS>SUBSTRUCTURE
     1 ****       31 TEMP              0 ****  ****    0 ROOT 
