#	Name:			LY-2014-EJPS-334-2-1q
#	Creating user name:	Administrator
#	Creation time:		Sun Jul 05 16:39:08 2020

#	Modifying user name:	Administrator
#	Modification time:	Sun Jul 05 16:40:47 2020

@<TRIPOS>MOLECULE
LY-2014-EJPS-334-2-1q
   52    55     1     0     0
SMALL
MULLIKEN_CHARGES
INVALID_CHARGES
Gaussian 16 #p B3LYP/6-31G* opt
@<TRIPOS>ATOM
      1 N          -5.131692   -3.953896   -3.510895 N.1       1 <1>        -0.471400 
      2 C          -5.999899   -3.232455   -3.239926 C.1       1 <1>         0.358400 
      3 C          -7.089053   -2.306202   -2.915859 C.3       1 <1>        -0.340000 
      4 C          -6.709395   -0.817053   -3.138235 C.3       1 <1>        -0.357100 
      5 C          -5.610137   -0.328990   -2.220396 C.ar      1 <1>         0.175700 
      6 C          -5.909146    0.180984   -0.951814 C.ar      1 <1>        -0.189200 
      7 C          -4.899907    0.602055   -0.085675 C.ar      1 <1>        -0.177300 
      8 C          -3.555002    0.518970   -0.463918 C.ar      1 <1>         0.113300 
      9 C          -2.440905    1.020544    0.458516 C.3       1 <1>        -0.097900 
     10 N          -2.930536    1.176990    1.834663 N.3       1 <1>        -0.562800 
     11 C          -2.098483    1.956904    2.720490 C.3       1 <1>         0.055400 
     12 C          -0.923724    1.399631    3.501685 C.3       1 <1>        -0.319300 
     13 C          -2.216872    1.763308    4.203743 C.3       1 <1>        -0.337200 
     14 C          -1.178596    0.160650    0.373542 C.ar      1 <1>         0.351900 
     15 C          -1.201620   -1.220345    0.633883 C.ar      1 <1>        -0.206600 
     16 C           0.017058   -1.880601    0.597271 C.ar      1 <1>         0.068300 
     17 N           1.178715   -1.266342    0.331843 N.ar      1 <1>        -0.477900 
     18 C           1.089629    0.046135    0.088479 C.ar      1 <1>         0.691200 
     19 N           2.219401    0.780687   -0.206169 N.pl3     1 <1>        -0.764900 
     20 C           3.565466    0.434085   -0.321895 C.ar      1 <1>         0.382700 
     21 C           4.069345   -0.867744   -0.142123 C.ar      1 <1>        -0.160100 
     22 C           5.431179   -1.105626   -0.279841 C.ar      1 <1>        -0.153200 
     23 C           6.323682   -0.068440   -0.596913 C.ar      1 <1>         0.131000 
     24 C           7.724074   -0.327552   -0.734570 C.1       1 <1>         0.227200 
     25 N           8.863963   -0.536449   -0.846468 N.1       1 <1>        -0.485200 
     26 C           5.817953    1.231444   -0.776714 C.ar      1 <1>        -0.140500 
     27 C           4.461619    1.475132   -0.640956 C.ar      1 <1>        -0.205600 
     28 N          -0.038513    0.792323    0.094399 N.ar      1 <1>        -0.562400 
     29 C          -3.253597    0.018549   -1.738197 C.ar      1 <1>        -0.171000 
     30 C          -4.264134   -0.397324   -2.602411 C.ar      1 <1>        -0.180800 
     31 H          -7.381231   -2.465067   -1.871006 H         1 <1>         0.196700 
     32 H          -7.955956   -2.565440   -3.536118 H         1 <1>         0.193700 
     33 H          -7.620211   -0.228405   -2.978789 H         1 <1>         0.160500 
     34 H          -6.420255   -0.682388   -4.186416 H         1 <1>         0.168300 
     35 H          -6.947774    0.259739   -0.635588 H         1 <1>         0.122700 
     36 H          -5.147075    1.012282    0.887345 H         1 <1>         0.151800 
     37 H          -2.137576    2.021325    0.125877 H         1 <1>         0.173700 
     38 H          -3.147182    0.269371    2.243094 H         1 <1>         0.297400 
     39 H          -2.000048    2.983001    2.370686 H         1 <1>         0.150100 
     40 H          -0.051480    2.030414    3.653122 H         1 <1>         0.153400 
     41 H          -0.695139    0.342892    3.392275 H         1 <1>         0.151400 
     42 H          -2.844019    0.947936    4.559072 H         1 <1>         0.150000 
     43 H          -2.243793    2.642276    4.841701 H         1 <1>         0.159300 
     44 H          -2.127616   -1.749251    0.830534 H         1 <1>         0.149400 
     45 H           0.080377   -2.951334    0.783220 H         1 <1>         0.157200 
     46 H           1.995288    1.755102   -0.364170 H         1 <1>         0.346000 
     47 H           3.388897   -1.670594    0.101855 H         1 <1>         0.189700 
     48 H           5.812942   -2.112070   -0.139991 H         1 <1>         0.158300 
     49 H           6.494364    2.043634   -1.022455 H         1 <1>         0.157500 
     50 H           4.082028    2.484472   -0.782429 H         1 <1>         0.136200 
     51 H          -2.219341   -0.046052   -2.065075 H         1 <1>         0.140100 
     52 H          -4.001812   -0.786320   -3.582960 H         1 <1>         0.141900 
@<TRIPOS>BOND
     1   27   50 1    
     2   26   49 1    
     3    4   34 1    
     4   19   46 1    
     5    9   37 1    
     6   27   26 ar   
     7   20   27 ar   
     8    4   33 1    
     9   26   23 ar   
    10   30   52 1    
    11   11   39 1    
    12   29   30 ar   
    13   30    5 ar   
    14   29   51 1    
    15    5    4 1    
    16    4    3 1    
    17    8   29 ar   
    18    6    5 ar   
    19   19   20 1    
    20   18   19 1    
    21    9    8 1    
    22    8    7 ar   
    23    6   35 1    
    24    7    6 ar   
    25   10    9 1    
    26    9   14 1    
    27   28   18 ar   
    28   14   28 ar   
    29    7   36 1    
    30   20   21 ar   
    31   23   24 1    
    32   23   22 ar   
    33   11   10 1    
    34   11   12 1    
    35   11   13 1    
    36   24   25 3    
    37   10   38 1    
    38   18   17 ar   
    39   14   15 ar   
    40    3   32 1    
    41    3    2 1    
    42    3   31 1    
    43   12   40 1    
    44   13   43 1    
    45   21   22 ar   
    46   21   47 1    
    47   12   13 1    
    48   12   41 1    
    49   22   48 1    
    50   13   42 1    
    51    2    1 3    
    52   17   16 ar   
    53   15   16 ar   
    54   15   44 1    
    55   16   45 1    
@<TRIPOS>SUBSTRUCTURE
     1 ****       39 TEMP              0 ****  ****    0 ROOT 
