#	Name:			LY-2014-EJPS-334-2-1v
#	Creating user name:	Administrator
#	Creation time:		Sun Jul 05 16:39:08 2020

#	Modifying user name:	Administrator
#	Modification time:	Sun Jul 05 16:40:47 2020

@<TRIPOS>MOLECULE
LY-2014-EJPS-334-2-1v
   60    63     1     0     0
SMALL
MULLIKEN_CHARGES
INVALID_CHARGES
Gaussian 16 #p B3LYP/6-31G* opt
@<TRIPOS>ATOM
      1 C           0.291828   -3.385204    0.969032 C.3       1 <1>        -0.513600 
      2 C           0.088120   -1.946048    0.577487 C.ar      1 <1>         0.342300 
      3 C          -1.163193   -1.441016    0.230411 C.ar      1 <1>        -0.232900 
      4 C          -1.234829   -0.086644   -0.116876 C.ar      1 <1>         0.341200 
      5 C          -2.555615    0.599600   -0.468513 C.3       1 <1>        -0.079300 
      6 N          -3.490809   -0.347332   -1.084958 N.3       1 <1>        -0.583800 
      7 C          -3.165259   -0.711797   -2.445217 C.3       1 <1>         0.040800 
      8 C          -4.266838   -0.920805   -3.441122 C.3       1 <1>        -0.333900 
      9 C          -3.320829    0.251632   -3.607358 C.3       1 <1>        -0.318900 
     10 C          -3.165207    1.211365    0.789455 C.ar      1 <1>         0.117700 
     11 C          -3.972776    0.460194    1.653896 C.ar      1 <1>        -0.180100 
     12 C          -4.508061    1.035089    2.803713 C.ar      1 <1>        -0.189300 
     13 C          -4.257848    2.374205    3.149434 C.ar      1 <1>         0.183800 
     14 C          -4.868872    2.966618    4.432148 C.3       1 <1>         0.016400 
     15 C          -4.480521    4.442895    4.638641 C.3       1 <1>        -0.457300 
     16 C          -4.372297    2.162254    5.657242 C.3       1 <1>        -0.438900 
     17 C          -6.411879    2.880947    4.355045 C.3       1 <1>        -0.438800 
     18 C          -3.443483    3.111916    2.279655 C.ar      1 <1>        -0.198900 
     19 C          -2.908575    2.542994    1.122067 C.ar      1 <1>        -0.173800 
     20 N          -0.153788    0.693630   -0.124257 N.ar      1 <1>        -0.556700 
     21 C           1.007619    0.108533    0.232803 C.ar      1 <1>         0.690500 
     22 N           2.080312    0.981113    0.206073 N.pl3     1 <1>        -0.770500 
     23 C           3.434424    0.819309    0.487412 C.ar      1 <1>         0.384300 
     24 C           4.252402    1.960642    0.350264 C.ar      1 <1>        -0.205900 
     25 C           5.611533    1.899923    0.607086 C.ar      1 <1>        -0.141000 
     26 C           6.201403    0.688965    1.011826 C.ar      1 <1>         0.129800 
     27 C           7.604985    0.618221    1.278786 C.1       1 <1>         0.225500 
     28 N           8.747562    0.561952    1.495657 N.1       1 <1>        -0.487600 
     29 C           5.387657   -0.448064    1.148818 C.ar      1 <1>        -0.154000 
     30 C           4.023554   -0.393785    0.892838 C.ar      1 <1>        -0.160700 
     31 N           1.186748   -1.168511    0.581264 N.ar      1 <1>        -0.533800 
     32 H           1.020004   -3.859705    0.301416 H         1 <1>         0.176800 
     33 H           0.700715   -3.446018    1.984026 H         1 <1>         0.178300 
     34 H          -0.643026   -3.950673    0.931538 H         1 <1>         0.159000 
     35 H          -2.052165   -2.059250    0.218348 H         1 <1>         0.158000 
     36 H          -2.289007    1.422957   -1.150407 H         1 <1>         0.139500 
     37 H          -4.429811    0.041591   -1.039778 H         1 <1>         0.303800 
     38 H          -2.323436   -1.399039   -2.502197 H         1 <1>         0.150800 
     39 H          -5.285054   -0.704715   -3.123659 H         1 <1>         0.151600 
     40 H          -4.193161   -1.758784   -4.128620 H         1 <1>         0.158600 
     41 H          -2.592728    0.224173   -4.413895 H         1 <1>         0.154300 
     42 H          -3.713172    1.243060   -3.393210 H         1 <1>         0.151000 
     43 H          -4.185786   -0.578795    1.419848 H         1 <1>         0.142300 
     44 H          -5.132947    0.419919    3.445730 H         1 <1>         0.126100 
     45 H          -4.936361    4.818536    5.561610 H         1 <1>         0.142600 
     46 H          -3.395926    4.570522    4.731063 H         1 <1>         0.146600 
     47 H          -4.831360    5.076537    3.816077 H         1 <1>         0.145100 
     48 H          -3.280843    2.211456    5.742168 H         1 <1>         0.148900 
     49 H          -4.804163    2.568033    6.580302 H         1 <1>         0.139600 
     50 H          -4.654833    1.106286    5.593864 H         1 <1>         0.142900 
     51 H          -6.793978    3.449936    3.499764 H         1 <1>         0.146500 
     52 H          -6.758447    1.847482    4.250367 H         1 <1>         0.142600 
     53 H          -6.862869    3.292858    5.266166 H         1 <1>         0.139800 
     54 H          -3.217459    4.150989    2.492586 H         1 <1>         0.127800 
     55 H          -2.278933    3.144663    0.471509 H         1 <1>         0.130800 
     56 H           1.791104    1.909757   -0.073485 H         1 <1>         0.343700 
     57 H           3.808068    2.902964    0.037884 H         1 <1>         0.134500 
     58 H           6.225791    2.787764    0.496469 H         1 <1>         0.155500 
     59 H           5.834336   -1.386963    1.460987 H         1 <1>         0.155300 
     60 H           3.403011   -1.271451    1.000218 H         1 <1>         0.185200 
@<TRIPOS>BOND
     1    1   33 1    
     2    1   34 1    
     3    1   32 1    
     4    2    1 1    
     5   16   50 1    
     6    3   35 1    
     7    2    3 ar   
     8   31    2 ar   
     9   12   44 1    
    10   29   59 1    
    11   16   49 1    
    12   11   43 1    
    13   16   48 1    
    14   14   16 1    
    15   30   60 1    
    16    4    3 ar   
    17   21   31 ar   
    18   17   52 1    
    19   11   12 ar   
    20   12   13 ar   
    21   30   29 ar   
    22   29   26 ar   
    23   10   11 ar   
    24   23   30 ar   
    25   17   53 1    
    26   14   17 1    
    27   17   51 1    
    28   13   14 1    
    29   14   15 1    
    30    4    5 1    
    31   20    4 ar   
    32   21   20 ar   
    33   22   21 1    
    34    7   38 1    
    35   27   28 3    
    36   13   18 ar   
    37    6   37 1    
    38    6    7 1    
    39    5    6 1    
    40   26   27 1    
    41   26   25 ar   
    42    5   10 1    
    43   10   19 ar   
    44    8   40 1    
    45    7    8 1    
    46    7    9 1    
    47   23   22 1    
    48   23   24 ar   
    49    5   36 1    
    50   15   45 1    
    51   22   56 1    
    52    8   39 1    
    53    8    9 1    
    54   15   46 1    
    55   15   47 1    
    56   18   19 ar   
    57   18   54 1    
    58   19   55 1    
    59   25   24 ar   
    60   25   58 1    
    61   24   57 1    
    62    9   41 1    
    63    9   42 1    
@<TRIPOS>SUBSTRUCTURE
     1 ****       28 TEMP              0 ****  ****    0 ROOT 
