#	Name:			LY-2014-EJPS-334-2-1g
#	Creating user name:	Administrator
#	Creation time:		Sun Jul 05 16:39:07 2020

#	Modifying user name:	Administrator
#	Modification time:	Sun Jul 05 16:40:47 2020

@<TRIPOS>MOLECULE
LY-2014-EJPS-334-2-1g
   45    48     1     0     0
SMALL
MULLIKEN_CHARGES
INVALID_CHARGES
Gaussian 16 #p B3LYP/6-31G* opt
@<TRIPOS>ATOM
      1 N           8.789742    0.425509    1.419696 N.1       1 <1>        -0.484400 
      2 C           7.646421    0.499572    1.213088 C.1       1 <1>         0.227500 
      3 C           6.241400    0.592788    0.959270 C.ar      1 <1>         0.131300 
      4 C           5.670011    1.810274    0.548582 C.ar      1 <1>        -0.140200 
      5 C           4.309381    1.893033    0.305461 C.ar      1 <1>        -0.205900 
      6 C           3.473861    0.768031    0.462809 C.ar      1 <1>         0.382700 
      7 N           2.116817    0.955622    0.196336 N.pl3     1 <1>        -0.765900 
      8 C           1.033320    0.102502    0.231339 C.ar      1 <1>         0.695000 
      9 N           1.197907   -1.181813    0.571959 N.ar      1 <1>        -0.477600 
     10 C           0.082781   -1.921502    0.570398 C.ar      1 <1>         0.075400 
     11 C          -1.165305   -1.414602    0.237453 C.ar      1 <1>        -0.201400 
     12 C          -1.226265   -0.055116   -0.104796 C.ar      1 <1>         0.372800 
     13 C          -2.565249    0.582139   -0.464792 C.3       1 <1>        -0.157400 
     14 N          -2.460932    1.458051   -1.648163 N.3       1 <1>        -0.544400 
     15 C          -1.981113    2.813491   -1.489746 C.3       1 <1>         0.044500 
     16 C          -2.393925    3.837923   -2.508106 C.3       1 <1>        -0.338000 
     17 C          -2.867433    3.973542   -1.076267 C.3       1 <1>        -0.315400 
     18 C          -3.254203    1.181210    0.769973 C.ar      1 <1>         0.175400 
     19 C          -2.573672    1.979407    1.698970 C.ar      1 <1>        -0.156200 
     20 C          -3.253230    2.539970    2.779927 C.ar      1 <1>        -0.132700 
     21 C          -4.618889    2.315443    2.961071 C.ar      1 <1>        -0.128800 
     22 C          -5.288880    1.516611    2.036930 C.ar      1 <1>        -0.064600 
     23 CL         -7.009459    1.206090    2.246628 Cl        1 <1>        -0.025000 
     24 C          -4.623503    0.949648    0.951790 C.ar      1 <1>        -0.196600 
     25 N          -0.129636    0.703581   -0.100024 N.ar      1 <1>        -0.552600 
     26 C           4.043675   -0.451595    0.873152 C.ar      1 <1>        -0.159300 
     27 C           5.409568   -0.528092    1.115652 C.ar      1 <1>        -0.153200 
     28 H           6.299186    2.685431    0.422488 H         1 <1>         0.158200 
     29 H           3.879136    2.840181   -0.012202 H         1 <1>         0.135800 
     30 H           1.848317    1.887234   -0.093411 H         1 <1>         0.345400 
     31 H           0.207635   -2.967542    0.844896 H         1 <1>         0.156600 
     32 H          -2.049671   -2.041675    0.239755 H         1 <1>         0.147700 
     33 H          -3.199297   -0.247173   -0.797502 H         1 <1>         0.146200 
     34 H          -3.367636    1.474710   -2.109560 H         1 <1>         0.297300 
     35 H          -0.949600    2.839923   -1.157498 H         1 <1>         0.161600 
     36 H          -3.126154    3.540705   -3.256670 H         1 <1>         0.148400 
     37 H          -1.643106    4.526428   -2.885909 H         1 <1>         0.154600 
     38 H          -2.444357    4.761313   -0.457732 H         1 <1>         0.146700 
     39 H          -3.913859    3.764056   -0.870904 H         1 <1>         0.152000 
     40 H          -1.511037    2.158636    1.574629 H         1 <1>         0.150700 
     41 H          -2.716240    3.157750    3.494632 H         1 <1>         0.142800 
     42 H          -5.152898    2.745188    3.801598 H         1 <1>         0.157000 
     43 H          -5.174962    0.327822    0.251952 H         1 <1>         0.145800 
     44 H           3.410893   -1.318674    0.994394 H         1 <1>         0.189500 
     45 H           5.842372   -1.472012    1.431808 H         1 <1>         0.158600 
@<TRIPOS>BOND
     1   11   32 1    
     2   10   31 1    
     3   13   33 1    
     4   14   34 1    
     5   10   11 ar   
     6   12   11 ar   
     7    9   10 ar   
     8   13   14 1    
     9   14   15 1    
    10   16   36 1    
    11   12   13 1    
    12   25   12 ar   
    13   13   18 1    
    14    8    9 ar   
    15   24   43 1    
    16   26   44 1    
    17    8   25 ar   
    18    7    8 1    
    19   15   16 1    
    20   16   37 1    
    21   17   16 1    
    22   15   35 1    
    23   15   17 1    
    24   27   45 1    
    25   26   27 ar   
    26    6   26 ar   
    27   18   24 ar   
    28   24   22 ar   
    29    7    6 1    
    30    7   30 1    
    31   18   19 ar   
    32   27    3 ar   
    33    6    5 ar   
    34   17   39 1    
    35   17   38 1    
    36    3    2 1    
    37    3    4 ar   
    38   22   23 1    
    39    5    4 ar   
    40    5   29 1    
    41    2    1 3    
    42   22   21 ar   
    43    4   28 1    
    44   19   40 1    
    45   19   20 ar   
    46   21   20 ar   
    47   21   42 1    
    48   20   41 1    
@<TRIPOS>SUBSTRUCTURE
     1 ****       43 TEMP              0 ****  ****    0 ROOT 
