#	Name:			LY-2014-EJPS-334-2-1k
#	Creating user name:	Administrator
#	Creation time:		Sun Jul 05 16:39:07 2020

#	Modifying user name:	Administrator
#	Modification time:	Sun Jul 05 16:40:47 2020

@<TRIPOS>MOLECULE
LY-2014-EJPS-334-2-1k
   45    48     1     0     0
SMALL
MULLIKEN_CHARGES
INVALID_CHARGES
Gaussian 16 #p B3LYP/6-31G* opt
@<TRIPOS>ATOM
      1 N           8.731890    0.845966    1.285960 N.1       1 <1>        -0.485600 
      2 C           7.583165    0.861506    1.097350 C.1       1 <1>         0.227000 
      3 C           6.171503    0.881246    0.864785 C.ar      1 <1>         0.131000 
      4 C           5.405195   -0.286381    1.014070 C.ar      1 <1>        -0.153300 
      5 C           4.034065   -0.281951    0.790897 C.ar      1 <1>        -0.159900 
      6 C           3.391634    0.910306    0.407900 C.ar      1 <1>         0.382800 
      7 N           2.024264    1.024257    0.156567 N.pl3     1 <1>        -0.765500 
      8 C           0.985548    0.118455    0.215416 C.ar      1 <1>         0.690900 
      9 N           1.219026   -1.154983    0.568814 N.ar      1 <1>        -0.475800 
     10 C           0.142528   -1.946167    0.596441 C.ar      1 <1>         0.074100 
     11 C          -1.137603   -1.502081    0.285090 C.ar      1 <1>        -0.210100 
     12 C          -1.264213   -0.154318   -0.073157 C.ar      1 <1>         0.369700 
     13 C          -2.634568    0.448955   -0.399034 C.3       1 <1>        -0.093300 
     14 N          -2.632824    1.084323   -1.720351 N.3       1 <1>        -0.560500 
     15 C          -2.554230    0.167154   -2.830817 C.3       1 <1>         0.020500 
     16 C          -1.200776   -0.111539   -3.439680 C.3       1 <1>        -0.300800 
     17 C          -2.200575    0.746713   -4.174612 C.3       1 <1>        -0.325700 
     18 C          -3.037840    1.462937    0.665455 C.ar      1 <1>         0.104900 
     19 C          -3.946092    1.116027    1.670910 C.ar      1 <1>        -0.172200 
     20 C          -4.304354    2.041701    2.652118 C.ar      1 <1>        -0.132400 
     21 C          -3.764189    3.327538    2.641287 C.ar      1 <1>        -0.143000 
     22 C          -2.861451    3.663105    1.633075 C.ar      1 <1>         0.078800 
     23 BR         -2.111678    5.426076    1.603405 Br        1 <1>        -0.132800 
     24 C          -2.489207    2.752696    0.649582 C.ar      1 <1>        -0.171000 
     25 N          -0.206974    0.654966   -0.107746 N.ar      1 <1>        -0.531500 
     26 C           4.161193    2.082506    0.258522 C.ar      1 <1>        -0.205500 
     27 C           5.527629    2.071526    0.482307 C.ar      1 <1>        -0.140500 
     28 H           5.894042   -1.209498    1.309378 H         1 <1>         0.157200 
     29 H           3.451687   -1.184135    0.908778 H         1 <1>         0.188000 
     30 H           1.696828    1.943877   -0.111776 H         1 <1>         0.348700 
     31 H           0.322164   -2.981966    0.879938 H         1 <1>         0.154700 
     32 H          -1.991796   -2.169264    0.311738 H         1 <1>         0.143100 
     33 H          -3.356967   -0.386744   -0.350312 H         1 <1>         0.118800 
     34 H          -3.475116    1.651397   -1.802242 H         1 <1>         0.308000 
     35 H          -3.265645   -0.666933   -2.831426 H         1 <1>         0.122900 
     36 H          -0.353023    0.391033   -2.986751 H         1 <1>         0.169900 
     37 H          -1.000976   -1.112995   -3.810579 H         1 <1>         0.149700 
     38 H          -2.008132    1.814935   -4.211301 H         1 <1>         0.162400 
     39 H          -2.694699    0.341901   -5.053167 H         1 <1>         0.152600 
     40 H          -4.377934    0.118364    1.685641 H         1 <1>         0.130800 
     41 H          -5.012536    1.764881    3.428108 H         1 <1>         0.142500 
     42 H          -4.038215    4.056050    3.396355 H         1 <1>         0.155800 
     43 H          -1.781879    3.024258   -0.123702 H         1 <1>         0.177800 
     44 H           3.674244    3.009369   -0.036080 H         1 <1>         0.138800 
     45 H           6.105250    2.982452    0.363261 H         1 <1>         0.157900 
@<TRIPOS>BOND
     1   17   38 1    
     2   17   39 1    
     3   16   17 1    
     4   15   17 1    
     5   16   36 1    
     6   16   37 1    
     7   15   16 1    
     8   26   44 1    
     9   27   45 1    
    10   14   15 1    
    11   15   35 1    
    12   14   34 1    
    13   13   14 1    
    14   26   27 ar   
    15   27    3 ar   
    16    6   26 ar   
    17   24   43 1    
    18    7   30 1    
    19   22   23 1    
    20    7    6 1    
    21    8    7 1    
    22    6    5 ar   
    23    3    2 1    
    24    3    4 ar   
    25    2    1 3    
    26   24   22 ar   
    27   18   24 ar   
    28   25    8 ar   
    29   12   25 ar   
    30   22   21 ar   
    31   13   18 1    
    32   13   12 1    
    33   13   33 1    
    34    8    9 ar   
    35   18   19 ar   
    36   12   11 ar   
    37    4    5 ar   
    38    4   28 1    
    39    5   29 1    
    40    9   10 ar   
    41   21   42 1    
    42   21   20 ar   
    43   11   10 ar   
    44   11   32 1    
    45   19   20 ar   
    46   19   40 1    
    47   10   31 1    
    48   20   41 1    
@<TRIPOS>SUBSTRUCTURE
     1 ****       38 TEMP              0 ****  ****    0 ROOT 
