#	Name:			LY-2014-EJPS-334-2-1m
#	Creating user name:	Administrator
#	Creation time:		Sun Jul 05 16:39:08 2020

#	Modifying user name:	Administrator
#	Modification time:	Sun Jul 05 16:40:47 2020

@<TRIPOS>MOLECULE
LY-2014-EJPS-334-2-1m
   49    52     1     0     0
SMALL
MULLIKEN_CHARGES
INVALID_CHARGES
Gaussian 16 #p B3LYP/6-31G* opt
@<TRIPOS>ATOM
      1 C          -4.911215    6.424854    0.747817 C.3       1 <1>        -0.215700 
      2 O          -3.922009    5.669049    1.428177 O.3       1 <1>        -0.505900 
      3 C          -3.658904    4.404826    0.987235 C.ar      1 <1>         0.376400 
      4 C          -4.289143    3.789026   -0.099762 C.ar      1 <1>        -0.194900 
      5 C          -3.927618    2.486580   -0.452221 C.ar      1 <1>        -0.203800 
      6 C          -2.958022    1.763809    0.249176 C.ar      1 <1>         0.193500 
      7 C          -2.697169    0.311159   -0.184837 C.3       1 <1>        -0.129400 
      8 N          -3.747686   -0.668557    0.132858 N.3       1 <1>        -0.579000 
      9 C          -4.219728   -0.944900    1.477262 C.3       1 <1>         0.026600 
     10 C          -4.855576    0.044967    2.436848 C.3       1 <1>        -0.327600 
     11 C          -3.502251   -0.560577    2.740515 C.3       1 <1>        -0.320100 
     12 C          -1.304340   -0.234798    0.130375 C.ar      1 <1>         0.311800 
     13 C          -1.085296   -1.581338    0.454396 C.ar      1 <1>        -0.186200 
     14 C           0.236402   -1.970501    0.625129 C.ar      1 <1>         0.065200 
     15 N           1.277394   -1.138681    0.491040 N.ar      1 <1>        -0.478000 
     16 C           0.957666    0.120662    0.168219 C.ar      1 <1>         0.685800 
     17 N           1.946811    1.069688   -0.006897 N.pl3     1 <1>        -0.767100 
     18 C           3.336313    1.008722    0.078465 C.ar      1 <1>         0.383400 
     19 C           4.063519   -0.153647    0.398165 C.ar      1 <1>        -0.161000 
     20 C           5.450554   -0.106128    0.457519 C.ar      1 <1>        -0.153600 
     21 C           6.150794    1.084990    0.204136 C.ar      1 <1>         0.130100 
     22 C           7.579543    1.119416    0.268954 C.1       1 <1>         0.226100 
     23 N           8.742297    1.148981    0.321459 N.1       1 <1>        -0.487000 
     24 C           5.422651    2.245227   -0.114873 C.ar      1 <1>        -0.140800 
     25 C           4.040072    2.204558   -0.175866 C.ar      1 <1>        -0.206100 
     26 N          -0.283278    0.612020   -0.018753 N.ar      1 <1>        -0.544900 
     27 C          -2.327249    2.408875    1.324638 C.ar      1 <1>        -0.172700 
     28 C          -2.671447    3.703374    1.693532 C.ar      1 <1>        -0.183800 
     29 H          -5.894418    5.937737    0.793703 H         1 <1>         0.152200 
     30 H          -4.640775    6.591272   -0.303419 H         1 <1>         0.152600 
     31 H          -4.960987    7.385711    1.263104 H         1 <1>         0.172200 
     32 H          -5.045872    4.307384   -0.677648 H         1 <1>         0.132600 
     33 H          -4.425559    2.025607   -1.304108 H         1 <1>         0.117200 
     34 H          -2.709364    0.337890   -1.284817 H         1 <1>         0.173300 
     35 H          -4.549976   -0.489312   -0.464237 H         1 <1>         0.305100 
     36 H          -4.667592   -1.938169    1.507137 H         1 <1>         0.140800 
     37 H          -4.872313    1.093406    2.158749 H         1 <1>         0.172300 
     38 H          -5.717594   -0.286848    3.010513 H         1 <1>         0.146300 
     39 H          -3.418343   -1.311577    3.521827 H         1 <1>         0.153900 
     40 H          -2.644110    0.097914    2.678285 H         1 <1>         0.158700 
     41 H          -1.909008   -2.274197    0.551022 H         1 <1>         0.167400 
     42 H           0.485003   -2.999178    0.881267 H         1 <1>         0.151900 
     43 H           1.553778    1.970965   -0.247618 H         1 <1>         0.346800 
     44 H           3.531735   -1.073396    0.594560 H         1 <1>         0.188700 
     45 H           6.004360   -1.006430    0.704553 H         1 <1>         0.156500 
     46 H           5.948391    3.173720   -0.313369 H         1 <1>         0.156200 
     47 H           3.487950    3.108290   -0.423519 H         1 <1>         0.136200 
     48 H          -1.540033    1.905400    1.874749 H         1 <1>         0.137600 
     49 H          -2.181740    4.197237    2.527050 H         1 <1>         0.140300 
@<TRIPOS>BOND
     1    5   33 1    
     2    7   34 1    
     3    4   32 1    
     4    8   35 1    
     5    4    5 ar   
     6    5    6 ar   
     7    7    8 1    
     8    7   12 1    
     9    6    7 1    
    10    1   30 1    
    11    3    4 ar   
    12    8    9 1    
    13   12   26 ar   
    14   26   16 ar   
    15   17   43 1    
    16   12   13 ar   
    17   25   47 1    
    18    6   27 ar   
    19   16   17 1    
    20   17   18 1    
    21   16   15 ar   
    22   13   41 1    
    23   13   14 ar   
    24   18   25 ar   
    25   25   24 ar   
    26   24   46 1    
    27   18   19 ar   
    28   24   21 ar   
    29   14   15 ar   
    30   14   42 1    
    31    1   29 1    
    32    1   31 1    
    33    2    1 1    
    34   19   44 1    
    35   19   20 ar   
    36   20   21 ar   
    37   21   22 1    
    38    3    2 1    
    39    3   28 ar   
    40   20   45 1    
    41    9   36 1    
    42   22   23 3    
    43    9   10 1    
    44    9   11 1    
    45   27   28 ar   
    46   27   48 1    
    47   28   49 1    
    48   10   37 1    
    49   10   11 1    
    50   10   38 1    
    51   11   40 1    
    52   11   39 1    
@<TRIPOS>SUBSTRUCTURE
     1 ****       47 TEMP              0 ****  ****    0 ROOT 
