#	Name:			LY-2014-EJPS-334-2-1f
#	Creating user name:	Administrator
#	Creation time:		Sun Jul 05 16:39:07 2020

#	Modifying user name:	Administrator
#	Modification time:	Sun Jul 05 16:40:47 2020

@<TRIPOS>MOLECULE
LY-2014-EJPS-334-2-1f
   45    48     1     0     0
SMALL
MULLIKEN_CHARGES
INVALID_CHARGES
Gaussian 16 #p B3LYP/6-31G* opt
@<TRIPOS>ATOM
      1 N           8.677166    0.139878   -1.548377 N.1       1 <1>        -0.485200 
      2 C           7.537556    0.253790   -1.339170 C.1       1 <1>         0.227100 
      3 C           6.137168    0.395583   -1.081947 C.ar      1 <1>         0.131000 
      4 C           5.366396   -0.710007   -0.686374 C.ar      1 <1>        -0.153200 
      5 C           4.006139   -0.586675   -0.432766 C.ar      1 <1>        -0.159800 
      6 C           3.379475    0.665842   -0.572318 C.ar      1 <1>         0.383100 
      7 N           2.023764    0.899982   -0.341945 N.pl3     1 <1>        -0.765500 
      8 C           0.985956    0.076702    0.044517 C.ar      1 <1>         0.691100 
      9 N           1.209033   -1.225950    0.275483 N.ar      1 <1>        -0.476200 
     10 C           0.136135   -1.931240    0.646405 C.ar      1 <1>         0.074200 
     11 C          -1.129216   -1.374086    0.789385 C.ar      1 <1>        -0.209700 
     12 C          -1.246688   -0.004133    0.522091 C.ar      1 <1>         0.368600 
     13 C          -2.606002    0.697871    0.606562 C.3       1 <1>        -0.094600 
     14 N          -2.541459    1.882574    1.467855 N.3       1 <1>        -0.560400 
     15 C          -2.393886    1.597591    2.874191 C.3       1 <1>         0.020600 
     16 C          -1.007563    1.620155    3.472404 C.3       1 <1>        -0.300900 
     17 C          -1.978017    2.737568    3.765456 C.3       1 <1>        -0.325600 
     18 C          -3.089928    1.092446   -0.783426 C.ar      1 <1>         0.111300 
     19 C          -4.067786    0.335773   -1.436863 C.ar      1 <1>        -0.176400 
     20 C          -4.514610    0.681408   -2.712778 C.ar      1 <1>        -0.131200 
     21 C          -3.973344    1.803758   -3.335728 C.ar      1 <1>        -0.063100 
     22 CL         -4.532105    2.256120   -4.941351 Cl        1 <1>        -0.022800 
     23 C          -2.998320    2.576971   -2.705085 C.ar      1 <1>        -0.133400 
     24 C          -2.559049    2.215388   -1.432962 C.ar      1 <1>        -0.149200 
     25 N          -0.192888    0.720429    0.148775 N.ar      1 <1>        -0.532800 
     26 C           4.153625    1.775481   -0.969862 C.ar      1 <1>        -0.205500 
     27 C           5.509169    1.646089   -1.221030 C.ar      1 <1>        -0.140300 
     28 H           5.843019   -1.679130   -0.576861 H         1 <1>         0.157700 
     29 H           3.420325   -1.441921   -0.129034 H         1 <1>         0.188500 
     30 H           1.706997    1.850924   -0.482766 H         1 <1>         0.346300 
     31 H           0.307051   -2.989311    0.838520 H         1 <1>         0.155000 
     32 H          -1.979983   -1.970825    1.098319 H         1 <1>         0.143300 
     33 H          -3.313350   -0.054172    1.002877 H         1 <1>         0.118100 
     34 H          -3.386431    2.431138    1.316276 H         1 <1>         0.306900 
     35 H          -3.094229    0.872661    3.305362 H         1 <1>         0.123400 
     36 H          -0.777199    0.909752    4.261585 H         1 <1>         0.149800 
     37 H          -0.190450    1.837004    2.793113 H         1 <1>         0.169300 
     38 H          -2.421198    2.802459    4.755041 H         1 <1>         0.152700 
     39 H          -1.796596    3.693992    3.283825 H         1 <1>         0.160900 
     40 H          -4.493742   -0.536200   -0.945954 H         1 <1>         0.134200 
     41 H          -5.275620    0.092578   -3.213597 H         1 <1>         0.156600 
     42 H          -2.589016    3.448062   -3.206002 H         1 <1>         0.156200 
     43 H          -1.797326    2.801810   -0.931399 H         1 <1>         0.165500 
     44 H           3.678996    2.747763   -1.080873 H         1 <1>         0.136400 
     45 H           6.090461    2.510105   -1.526280 H         1 <1>         0.157800 
@<TRIPOS>BOND
     1   17   39 1    
     2   27   45 1    
     3   26   44 1    
     4   17   38 1    
     5   16   17 1    
     6   15   17 1    
     7   23   42 1    
     8   24   43 1    
     9   26   27 ar   
    10   27    3 ar   
    11    6   26 ar   
    12   14   34 1    
    13   16   37 1    
    14    7   30 1    
    15   24   23 ar   
    16   23   21 ar   
    17   15   16 1    
    18   16   36 1    
    19   18   24 ar   
    20   14   15 1    
    21   13   14 1    
    22   15   35 1    
    23    7    6 1    
    24    8    7 1    
    25   21   22 1    
    26    2    1 3    
    27    3    2 1    
    28    3    4 ar   
    29    6    5 ar   
    30   21   20 ar   
    31   25    8 ar   
    32   12   25 ar   
    33   13   18 1    
    34   18   19 ar   
    35   13   12 1    
    36   13   33 1    
    37    8    9 ar   
    38    4    5 ar   
    39    4   28 1    
    40   12   11 ar   
    41    5   29 1    
    42   20   19 ar   
    43   20   41 1    
    44   19   40 1    
    45    9   10 ar   
    46   11   10 ar   
    47   11   32 1    
    48   10   31 1    
@<TRIPOS>SUBSTRUCTURE
     1 ****       42 TEMP              0 ****  ****    0 ROOT 
