#	Name:			LY-2014-EJPS-334-2-1b
#	Creating user name:	Administrator
#	Creation time:		Sun Jul 05 16:39:07 2020

#	Modifying user name:	Administrator
#	Modification time:	Sun Jul 05 16:40:47 2020

@<TRIPOS>MOLECULE
LY-2014-EJPS-334-2-1b
   48    51     1     0     0
SMALL
MULLIKEN_CHARGES
INVALID_CHARGES
Gaussian 16 #p B3LYP/6-31G* opt
@<TRIPOS>ATOM
      1 C          -4.889229    3.076903    4.315316 C.3       1 <1>        -0.531000 
      2 C          -4.293429    2.420899    3.091466 C.ar      1 <1>         0.181600 
      3 C          -4.835294    1.246685    2.559116 C.ar      1 <1>        -0.185700 
      4 C          -4.287925    0.653305    1.419423 C.ar      1 <1>        -0.182500 
      5 C          -3.179699    1.217369    0.783121 C.ar      1 <1>         0.116300 
      6 C          -2.578626    0.571165   -0.460671 C.3       1 <1>        -0.091700 
      7 N          -2.438177    1.570392   -1.519345 N.3       1 <1>        -0.552200 
      8 C          -2.067993    1.045965   -2.810855 C.3       1 <1>         0.039200 
      9 C          -2.679852    1.626543   -4.050500 C.3       1 <1>        -0.332900 
     10 C          -3.008764    0.201392   -3.654989 C.3       1 <1>        -0.323100 
     11 C          -1.232922   -0.073545   -0.117517 C.ar      1 <1>         0.342300 
     12 C          -1.164310   -1.431962    0.227172 C.ar      1 <1>        -0.201900 
     13 C           0.085217   -1.925528    0.574860 C.ar      1 <1>         0.071500 
     14 N           1.194101   -1.175632    0.584611 N.ar      1 <1>        -0.478100 
     15 C           1.018115    0.105163    0.232977 C.ar      1 <1>         0.686500 
     16 N           2.092379    0.971916    0.199779 N.pl3     1 <1>        -0.765200 
     17 C           3.447806    0.805043    0.478088 C.ar      1 <1>         0.383400 
     18 C           4.269565    1.941832    0.329386 C.ar      1 <1>        -0.205700 
     19 C           5.629255    1.876882    0.582200 C.ar      1 <1>        -0.140800 
     20 C           6.214658    0.666356    0.994366 C.ar      1 <1>         0.130400 
     21 C           7.618992    0.591406    1.257267 C.1       1 <1>         0.226300 
     22 N           8.761955    0.531908    1.470810 N.1       1 <1>        -0.486600 
     23 C           5.396775   -0.466010    1.142822 C.ar      1 <1>        -0.153500 
     24 C           4.031986   -0.407542    0.890636 C.ar      1 <1>        -0.160400 
     25 N          -0.144088    0.693076   -0.116484 N.ar      1 <1>        -0.525300 
     26 C          -2.628498    2.393820    1.312142 C.ar      1 <1>        -0.157700 
     27 C          -3.180478    2.982442    2.446158 C.ar      1 <1>        -0.179500 
     28 H          -5.656693    2.445825    4.774614 H         1 <1>         0.155800 
     29 H          -4.123520    3.280265    5.073475 H         1 <1>         0.163400 
     30 H          -5.356421    4.038437    4.065893 H         1 <1>         0.165100 
     31 H          -5.699065    0.790490    3.037484 H         1 <1>         0.123400 
     32 H          -4.732871   -0.256765    1.022476 H         1 <1>         0.121700 
     33 H          -3.243440   -0.258830   -0.762081 H         1 <1>         0.120300 
     34 H          -3.298970    2.108503   -1.578879 H         1 <1>         0.301000 
     35 H          -1.011869    0.790908   -2.867020 H         1 <1>         0.154800 
     36 H          -2.040538    1.799548   -4.911633 H         1 <1>         0.158000 
     37 H          -3.460169    2.375317   -3.928612 H         1 <1>         0.150600 
     38 H          -2.597465   -0.612027   -4.247293 H         1 <1>         0.151600 
     39 H          -4.006571    0.011115   -3.266346 H         1 <1>         0.147100 
     40 H          -2.043815   -2.065952    0.221812 H         1 <1>         0.142600 
     41 H           0.216981   -2.969317    0.855176 H         1 <1>         0.152800 
     42 H           1.806086    1.900221   -0.085271 H         1 <1>         0.347600 
     43 H           3.828280    2.883493    0.011085 H         1 <1>         0.136500 
     44 H           6.247235    2.760991    0.462784 H         1 <1>         0.156600 
     45 H           5.840106   -1.404455    1.460719 H         1 <1>         0.156800 
     46 H           3.409245   -1.282710    1.006978 H         1 <1>         0.188500 
     47 H          -1.765220    2.834803    0.824437 H         1 <1>         0.157900 
     48 H          -2.738819    3.894662    2.842435 H         1 <1>         0.124500 
@<TRIPOS>BOND
     1   13   41 1    
     2   12   40 1    
     3   12   13 ar   
     4   13   14 ar   
     5   11   12 ar   
     6   15   14 ar   
     7   24   46 1    
     8   23   45 1    
     9    4   32 1    
    10    3   31 1    
    11    6   33 1    
    12   24   23 ar   
    13   17   24 ar   
    14   23   20 ar   
    15    4    3 ar   
    16    5    4 ar   
    17    6   11 1    
    18   11   25 ar   
    19    3    2 ar   
    20   25   15 ar   
    21   15   16 1    
    22   10   38 1    
    23    6    5 1    
    24    7    6 1    
    25    1   28 1    
    26   10   39 1    
    27    5   26 ar   
    28    8   10 1    
    29   10    9 1    
    30   16   17 1    
    31   17   18 ar   
    32   20   21 1    
    33   20   19 ar   
    34   21   22 3    
    35    2    1 1    
    36    2   27 ar   
    37   16   42 1    
    38    1   29 1    
    39    1   30 1    
    40    8   35 1    
    41    8    7 1    
    42    8    9 1    
    43    7   34 1    
    44   26   27 ar   
    45   26   47 1    
    46   27   48 1    
    47   18   19 ar   
    48   18   43 1    
    49   19   44 1    
    50    9   36 1    
    51    9   37 1    
@<TRIPOS>SUBSTRUCTURE
     1 ****       38 TEMP              0 ****  ****    0 ROOT 
