#	Name:			LY-2014-EJPS-334-2-1l
#	Creating user name:	Administrator
#	Creation time:		Sun Jul 05 16:39:07 2020

#	Modifying user name:	Administrator
#	Modification time:	Sun Jul 05 16:40:47 2020

@<TRIPOS>MOLECULE
LY-2014-EJPS-334-2-1l
   57    60     1     0     0
SMALL
MULLIKEN_CHARGES
INVALID_CHARGES
Gaussian 16 #p B3LYP/6-31G* opt
@<TRIPOS>ATOM
      1 C          -8.458436   -0.517417    1.869612 C.3       1 <1>        -0.438500 
      2 C          -7.188161   -1.113367    2.521943 C.3       1 <1>         0.017100 
      3 C          -7.220803   -0.780925    4.025831 C.3       1 <1>        -0.457400 
      4 C          -7.209184   -2.652914    2.369219 C.3       1 <1>        -0.438800 
      5 C          -5.938805   -0.545964    1.823428 C.ar      1 <1>         0.180900 
      6 C          -4.956882    0.197134    2.497234 C.ar      1 <1>        -0.199600 
      7 C          -3.837061    0.699673    1.834404 C.ar      1 <1>        -0.171500 
      8 C          -3.653292    0.478758    0.466547 C.ar      1 <1>         0.177400 
      9 C          -2.413723    1.002868   -0.248910 C.3       1 <1>        -0.103300 
     10 N          -2.153666    2.408154    0.059725 N.3       1 <1>        -0.580200 
     11 C          -2.932833    3.341956   -0.711816 C.3       1 <1>         0.029400 
     12 C          -4.242308    3.841692   -0.152550 C.3       1 <1>        -0.301700 
     13 C          -3.038440    4.751755   -0.192207 C.3       1 <1>        -0.328000 
     14 C          -1.165577    0.163902    0.059468 C.ar      1 <1>         0.341800 
     15 C          -1.233901   -1.208969    0.338031 C.ar      1 <1>        -0.197600 
     16 C          -0.025583   -1.864641    0.527840 C.ar      1 <1>         0.068100 
     17 N           1.165150   -1.255060    0.465051 N.ar      1 <1>        -0.478300 
     18 C           1.121443    0.055158    0.198730 C.ar      1 <1>         0.699300 
     19 N           2.286140    0.789917    0.114523 N.pl3     1 <1>        -0.765900 
     20 C           3.630231    0.444326    0.259342 C.ar      1 <1>         0.383000 
     21 C           4.570308    1.483397    0.102228 C.ar      1 <1>        -0.205900 
     22 C           5.928016    1.241162    0.226462 C.ar      1 <1>        -0.140300 
     23 C           6.390939   -0.055387    0.513186 C.ar      1 <1>         0.131100 
     24 C           7.792322   -0.313670    0.642642 C.1       1 <1>         0.227300 
     25 N           8.932777   -0.522315    0.747480 N.1       1 <1>        -0.484900 
     26 C           5.454586   -1.090502    0.669928 C.ar      1 <1>        -0.153300 
     27 C           4.091136   -0.854034    0.546688 C.ar      1 <1>        -0.159800 
     28 N           0.009509    0.790088   -0.013432 N.ar      1 <1>        -0.580500 
     29 C          -4.626613   -0.255599   -0.216595 C.ar      1 <1>        -0.201300 
     30 C          -5.744398   -0.757783    0.449241 C.ar      1 <1>        -0.188600 
     31 H          -9.358621   -0.916483    2.352873 H         1 <1>         0.139600 
     32 H          -8.519582   -0.756329    0.802772 H         1 <1>         0.142600 
     33 H          -8.474662    0.573999    1.968946 H         1 <1>         0.148300 
     34 H          -8.123955   -1.206296    4.477804 H         1 <1>         0.142400 
     35 H          -7.240545    0.300063    4.204940 H         1 <1>         0.146700 
     36 H          -6.357940   -1.200160    4.555753 H         1 <1>         0.145700 
     37 H          -6.323950   -3.104925    2.831287 H         1 <1>         0.146000 
     38 H          -8.098023   -3.072603    2.855889 H         1 <1>         0.140100 
     39 H          -7.230215   -2.958476    1.317822 H         1 <1>         0.142100 
     40 H          -5.057413    0.395286    3.558818 H         1 <1>         0.128800 
     41 H          -3.101214    1.286861    2.376615 H         1 <1>         0.142100 
     42 H          -2.583032    0.859994   -1.336692 H         1 <1>         0.141300 
     43 H          -1.159048    2.579141   -0.076067 H         1 <1>         0.322500 
     44 H          -2.893054    3.227867   -1.802123 H         1 <1>         0.121000 
     45 H          -4.545055    3.450858    0.812711 H         1 <1>         0.166500 
     46 H          -5.057298    4.027561   -0.846767 H         1 <1>         0.145900 
     47 H          -3.020362    5.567396   -0.909774 H         1 <1>         0.147700 
     48 H          -2.542068    4.963574    0.750290 H         1 <1>         0.157400 
     49 H          -2.180430   -1.729098    0.409102 H         1 <1>         0.162500 
     50 H           0.001121   -2.930920    0.745503 H         1 <1>         0.155800 
     51 H           2.099228    1.763148   -0.090204 H         1 <1>         0.343800 
     52 H           4.224447    2.490462   -0.119622 H         1 <1>         0.136300 
     53 H           6.638559    2.051942    0.102570 H         1 <1>         0.157900 
     54 H           5.803206   -2.094314    0.891685 H         1 <1>         0.158200 
     55 H           3.377033   -1.655400    0.668749 H         1 <1>         0.189600 
     56 H          -4.516385   -0.432283   -1.284997 H         1 <1>         0.123900 
     57 H          -6.479691   -1.318289   -0.121780 H         1 <1>         0.125700 
@<TRIPOS>BOND
     1    3   35 1    
     2    3   36 1    
     3    6   40 1    
     4    3   34 1    
     5    2    3 1    
     6    7   41 1    
     7   13   48 1    
     8    7    6 ar   
     9    6    5 ar   
    10   12   45 1    
    11    8    7 ar   
    12   22   53 1    
    13   24   25 3    
    14   13   47 1    
    15   12   13 1    
    16   11   13 1    
    17   21   22 ar   
    18   22   23 ar   
    19   21   52 1    
    20   23   24 1    
    21    5    2 1    
    22    2    1 1    
    23    2    4 1    
    24    1   33 1    
    25   20   21 ar   
    26   26   23 ar   
    27    1   31 1    
    28    5   30 ar   
    29   11   12 1    
    30   12   46 1    
    31    4   37 1    
    32   10   43 1    
    33   19   51 1    
    34   19   20 1    
    35   20   27 ar   
    36   10   11 1    
    37    9   10 1    
    38   26   54 1    
    39   27   26 ar   
    40    1   32 1    
    41    4   38 1    
    42   18   19 1    
    43   27   55 1    
    44    4   39 1    
    45   11   44 1    
    46   28   18 ar   
    47   18   17 ar   
    48   14   28 ar   
    49    9    8 1    
    50    8   29 ar   
    51   17   16 ar   
    52   14    9 1    
    53   14   15 ar   
    54    9   42 1    
    55   16   15 ar   
    56   16   50 1    
    57   15   49 1    
    58   30   29 ar   
    59   30   57 1    
    60   29   56 1    
@<TRIPOS>SUBSTRUCTURE
     1 ****       25 TEMP              0 ****  ****    0 ROOT 
