#	Name:			LY-2014-EJPS-334-2-1e
#	Creating user name:	Administrator
#	Creation time:		Sun Jul 05 16:39:07 2020

#	Modifying user name:	Administrator
#	Modification time:	Sun Jul 05 16:40:47 2020

@<TRIPOS>MOLECULE
LY-2014-EJPS-334-2-1e
   45    48     1     0     0
SMALL
MULLIKEN_CHARGES
INVALID_CHARGES
Gaussian 16 #p B3LYP/6-31G* opt
@<TRIPOS>ATOM
      1 N           8.901812   -0.367334    1.054321 N.1       1 <1>        -0.483900 
      2 C           7.762497   -0.180245    0.905839 C.1       1 <1>         0.227900 
      3 C           6.362304    0.051379    0.722464 C.ar      1 <1>         0.131700 
      4 C           5.439924   -0.999630    0.853646 C.ar      1 <1>        -0.153100 
      5 C           4.077842   -0.789090    0.677742 C.ar      1 <1>        -0.159200 
      6 C           3.605248    0.498067    0.362163 C.ar      1 <1>         0.382600 
      7 N           2.260813    0.818155    0.163406 N.pl3     1 <1>        -0.766200 
      8 C           1.108662    0.063971    0.215182 C.ar      1 <1>         0.704300 
      9 N           1.163543   -1.241447    0.498537 N.ar      1 <1>        -0.478600 
     10 C          -0.018355   -1.871856    0.527860 C.ar      1 <1>         0.069800 
     11 C          -1.228902   -1.238601    0.289409 C.ar      1 <1>        -0.194100 
     12 C          -1.170652    0.132406   -0.004063 C.ar      1 <1>         0.348200 
     13 C          -2.438872    0.927942   -0.348700 C.3       1 <1>        -0.113000 
     14 N          -2.170840    2.357157   -0.372063 N.3       1 <1>        -0.571300 
     15 C          -2.738034    3.175649   -1.420409 C.3       1 <1>         0.033600 
     16 C          -2.716847    2.844087   -2.902454 C.3       1 <1>        -0.327200 
     17 C          -4.021434    2.856688   -2.129774 C.3       1 <1>        -0.322300 
     18 C          -3.576800    0.584146    0.612669 C.ar      1 <1>         0.129200 
     19 C          -4.753056   -0.029921    0.174838 C.ar      1 <1>        -0.290400 
     20 C          -5.776911   -0.301580    1.077936 C.ar      1 <1>         0.387900 
     21 F          -6.903216   -0.892372    0.624044 F         1 <1>        -0.298300 
     22 C          -5.673481    0.017942    2.424697 C.ar      1 <1>        -0.198400 
     23 C          -4.498197    0.621828    2.876794 C.ar      1 <1>        -0.196700 
     24 C          -3.477917    0.889505    1.974410 C.ar      1 <1>         0.355700 
     25 F          -2.336546    1.440756    2.436055 F         1 <1>        -0.288900 
     26 N          -0.009270    0.777307   -0.046453 N.ar      1 <1>        -0.584200 
     27 C           4.531101    1.553179    0.230976 C.ar      1 <1>        -0.205500 
     28 C           5.887385    1.336820    0.407490 C.ar      1 <1>        -0.140200 
     29 H           5.798172   -1.994933    1.097014 H         1 <1>         0.158900 
     30 H           3.374588   -1.602523    0.780792 H         1 <1>         0.189900 
     31 H           2.064920    1.786607   -0.055264 H         1 <1>         0.345500 
     32 H           0.019210   -2.935517    0.755861 H         1 <1>         0.157700 
     33 H          -2.169082   -1.774794    0.331543 H         1 <1>         0.154600 
     34 H          -2.741968    0.546118   -1.339891 H         1 <1>         0.152600 
     35 H          -1.162940    2.491864   -0.331808 H         1 <1>         0.328300 
     36 H          -2.597640    4.228584   -1.183540 H         1 <1>         0.144600 
     37 H          -2.328129    1.875225   -3.208104 H         1 <1>         0.148700 
     38 H          -2.516619    3.642181   -3.612807 H         1 <1>         0.150800 
     39 H          -4.726859    3.665802   -2.299161 H         1 <1>         0.157500 
     40 H          -4.501051    1.901265   -1.940007 H         1 <1>         0.153000 
     41 H          -4.887321   -0.296009   -0.869630 H         1 <1>         0.149400 
     42 H          -6.493039   -0.205143    3.099122 H         1 <1>         0.156400 
     43 H          -4.362594    0.882233    3.921150 H         1 <1>         0.156900 
     44 H           4.175473    2.551853   -0.012225 H         1 <1>         0.137300 
     45 H           6.587350    2.159518    0.303090 H         1 <1>         0.158800 
@<TRIPOS>BOND
     1   23   43 1    
     2   24   25 1    
     3   24   23 ar   
     4   23   22 ar   
     5   18   24 ar   
     6   15   36 1    
     7   22   42 1    
     8   28   45 1    
     9   27   44 1    
    10   20   22 ar   
    11   14   35 1    
    12   27   28 ar   
    13   28    3 ar   
    14    6   27 ar   
    15   14   15 1    
    16   13   14 1    
    17    7   31 1    
    18   15   17 1    
    19   15   16 1    
    20    2    1 3    
    21    3    2 1    
    22    3    4 ar   
    23    7    6 1    
    24    8    7 1    
    25   13   18 1    
    26   18   19 ar   
    27    6    5 ar   
    28   17   39 1    
    29   26    8 ar   
    30   12   26 ar   
    31   19   20 ar   
    32   20   21 1    
    33   13   12 1    
    34   13   34 1    
    35   17   40 1    
    36   17   16 1    
    37    8    9 ar   
    38    4    5 ar   
    39    4   29 1    
    40    5   30 1    
    41   12   11 ar   
    42   19   41 1    
    43   16   38 1    
    44   16   37 1    
    45    9   10 ar   
    46   11   10 ar   
    47   11   33 1    
    48   10   32 1    
@<TRIPOS>SUBSTRUCTURE
     1 ****       43 TEMP              0 ****  ****    0 ROOT 
