#	Name:			LY-2014-EJPS-334-2-1a
#	Creating user name:	Administrator
#	Creation time:		Sun Jul 05 16:39:07 2020

#	Modifying user name:	Administrator
#	Modification time:	Sun Jul 05 16:40:47 2020

@<TRIPOS>MOLECULE
LY-2014-EJPS-334-2-1a
   45    48     1     0     0
SMALL
MULLIKEN_CHARGES
INVALID_CHARGES
Gaussian 16 #p B3LYP/6-31G* opt
@<TRIPOS>ATOM
      1 N           8.692717   -0.109556   -1.563680 N.1       1 <1>        -0.486600 
      2 C           7.557900    0.040296   -1.350634 C.1       1 <1>         0.226300 
      3 C           6.163742    0.226475   -1.089153 C.ar      1 <1>         0.130300 
      4 C           5.355678   -0.856932   -0.706181 C.ar      1 <1>        -0.153500 
      5 C           4.000853   -0.690355   -0.448912 C.ar      1 <1>        -0.160300 
      6 C           3.416799    0.584686   -0.571587 C.ar      1 <1>         0.383800 
      7 N           2.070835    0.860397   -0.337253 N.pl3     1 <1>        -0.765700 
      8 C           1.007717    0.066290    0.045504 C.ar      1 <1>         0.691300 
      9 N           1.186446   -1.242960    0.263187 N.ar      1 <1>        -0.478800 
     10 C           0.088530   -1.915835    0.631598 C.ar      1 <1>         0.069400 
     11 C          -1.157698   -1.323145    0.781940 C.ar      1 <1>        -0.195200 
     12 C          -1.225776    0.053399    0.527199 C.ar      1 <1>         0.339700 
     13 C          -2.536185    0.837953    0.603697 C.3       1 <1>        -0.079100 
     14 N          -3.439567    0.248939    1.596837 N.3       1 <1>        -0.584900 
     15 C          -3.058160    0.488213    2.970724 C.3       1 <1>         0.039500 
     16 C          -3.172697    1.853806    3.622572 C.3       1 <1>        -0.319100 
     17 C          -4.118504    0.732216    4.002561 C.3       1 <1>        -0.333700 
     18 C          -3.195344    0.865227   -0.773705 C.ar      1 <1>         0.114000 
     19 C          -2.937762    1.927954   -1.648052 C.ar      1 <1>        -0.168600 
     20 C          -3.516560    1.960569   -2.916914 C.ar      1 <1>        -0.131700 
     21 C          -4.364118    0.929635   -3.327231 C.ar      1 <1>        -0.125800 
     22 C          -4.624798   -0.134262   -2.462186 C.ar      1 <1>        -0.130300 
     23 C          -4.040920   -0.169865   -1.194910 C.ar      1 <1>        -0.176400 
     24 N          -0.148357    0.750696    0.165680 N.ar      1 <1>        -0.550800 
     25 C           4.228646    1.672102   -0.956472 C.ar      1 <1>        -0.205700 
     26 C           5.578521    1.499429   -1.211436 C.ar      1 <1>        -0.140700 
     27 H           5.799006   -1.843145   -0.609648 H         1 <1>         0.156900 
     28 H           3.385433   -1.528286   -0.155066 H         1 <1>         0.189000 
     29 H           1.784788    1.822742   -0.465524 H         1 <1>         0.344400 
     30 H           0.226617   -2.980571    0.812890 H         1 <1>         0.152600 
     31 H          -2.035580   -1.878887    1.085909 H         1 <1>         0.164200 
     32 H          -2.249409    1.869704    0.862862 H         1 <1>         0.141200 
     33 H          -4.382658    0.591405    1.428688 H         1 <1>         0.304800 
     34 H          -2.211595   -0.121262    3.280609 H         1 <1>         0.151700 
     35 H          -3.578523    2.667094    3.025437 H         1 <1>         0.151300 
     36 H          -2.413020    2.160176    4.337035 H         1 <1>         0.155200 
     37 H          -4.013520    0.261399    4.975926 H         1 <1>         0.159800 
     38 H          -5.149474    0.806689    3.662356 H         1 <1>         0.152300 
     39 H          -2.276751    2.730392   -1.331273 H         1 <1>         0.133900 
     40 H          -3.309576    2.794187   -3.582736 H         1 <1>         0.132700 
     41 H          -4.818580    0.956001   -4.313969 H         1 <1>         0.132600 
     42 H          -5.282162   -0.941676   -2.774210 H         1 <1>         0.132900 
     43 H          -4.242897   -0.999763   -0.524387 H         1 <1>         0.145700 
     44 H           3.787403    2.661371   -1.054410 H         1 <1>         0.134900 
     45 H           6.188794    2.346868   -1.506593 H         1 <1>         0.156300 
@<TRIPOS>BOND
     1   25   44 1    
     2   16   35 1    
     3   26   45 1    
     4   16   36 1    
     5   19   39 1    
     6   20   40 1    
     7   17   16 1    
     8   15   16 1    
     9    7   29 1    
    10   25   26 ar   
    11    6   25 ar   
    12   13   32 1    
    13   26    3 ar   
    14   19   20 ar   
    15   18   19 ar   
    16   20   21 ar   
    17    7    6 1    
    18    8    7 1    
    19   17   38 1    
    20   15   17 1    
    21   17   37 1    
    22   24    8 ar   
    23   12   24 ar   
    24    6    5 ar   
    25   13   18 1    
    26   14   13 1    
    27   13   12 1    
    28   15   14 1    
    29   15   34 1    
    30   18   23 ar   
    31    3    2 1    
    32    3    4 ar   
    33   14   33 1    
    34    2    1 3    
    35   21   41 1    
    36   21   22 ar   
    37    8    9 ar   
    38   12   11 ar   
    39    5    4 ar   
    40    5   28 1    
    41    4   27 1    
    42   23   22 ar   
    43   23   43 1    
    44   22   42 1    
    45    9   10 ar   
    46   11   10 ar   
    47   11   31 1    
    48   10   30 1    
@<TRIPOS>SUBSTRUCTURE
     1 ****       35 TEMP              0 ****  ****    0 ROOT 
