#	Name:			MG-2014-EJMC-600-4-1i
#	Creating user name:	Administrator
#	Creation time:		Sun Jul 05 16:39:14 2020

#	Modifying user name:	Administrator
#	Modification time:	Sun Jul 05 16:40:47 2020

@<TRIPOS>MOLECULE
MG-2014-EJMC-600-4-1i
   47    49     1     0     0
SMALL
MULLIKEN_CHARGES
INVALID_CHARGES
Gaussian 16 #p B3LYP/6-31G* opt
@<TRIPOS>ATOM
      1 C          -2.276223    2.604150   -3.066248 C.3       1 <1>        -0.439200 
      2 C          -2.017941    1.116195   -2.828072 C.3       1 <1>        -0.127000 
      3 N          -2.863848    0.572795   -1.752021 N.3       1 <1>        -0.558900 
      4 C          -2.438873    0.879384   -0.379425 C.3       1 <1>        -0.101500 
      5 C          -3.580548    0.684632    0.618766 C.ar      1 <1>         0.134100 
      6 C          -3.325343    0.747984    1.998227 C.ar      1 <1>        -0.175100 
      7 C          -4.352059    0.616931    2.923780 C.ar      1 <1>        -0.134300 
      8 C          -5.676699    0.412617    2.486603 C.ar      1 <1>         0.000300 
      9 C          -6.732454    0.270019    3.427571 C.1       1 <1>         0.023400 
     10 C          -7.636710    0.146480    4.233795 C.1       1 <1>         0.387400 
     11 C          -8.652481    0.007311    5.138799 C.1       1 <1>        -0.066500 
     12 N          -9.520346   -0.112048    5.912000 N.1       1 <1>        -0.464500 
     13 C          -5.936387    0.354162    1.104720 C.ar      1 <1>        -0.129900 
     14 C          -4.898586    0.493049    0.187855 C.ar      1 <1>        -0.183500 
     15 C          -1.179282    0.101459    0.002770 C.ar      1 <1>         0.333700 
     16 C          -1.212923   -1.273231    0.293004 C.ar      1 <1>        -0.207400 
     17 C           0.007531   -1.886882    0.534534 C.ar      1 <1>         0.069400 
     18 N           1.178065   -1.236215    0.499914 N.ar      1 <1>        -0.475500 
     19 C           1.101573    0.069545    0.215754 C.ar      1 <1>         0.690500 
     20 N           2.242069    0.839549    0.156690 N.pl3     1 <1>        -0.763900 
     21 C           3.593590    0.539922    0.341195 C.ar      1 <1>         0.381500 
     22 C           4.088682   -0.739748    0.652400 C.ar      1 <1>        -0.159700 
     23 C           5.455569   -0.929778    0.813953 C.ar      1 <1>        -0.152900 
     24 C           6.360426    0.134921    0.672526 C.ar      1 <1>         0.132100 
     25 C           7.765795   -0.075576    0.841045 C.1       1 <1>         0.228400 
     26 N           8.909360   -0.245433    0.977568 N.1       1 <1>        -0.482500 
     27 C           5.863076    1.412917    0.361877 C.ar      1 <1>        -0.140100 
     28 C           4.501723    1.608733    0.199553 C.ar      1 <1>        -0.205400 
     29 N          -0.027446    0.773780   -0.034159 N.ar      1 <1>        -0.561200 
     30 H          -3.334698    2.780655   -3.282339 H         1 <1>         0.158400 
     31 H          -1.680623    2.959291   -3.914723 H         1 <1>         0.147500 
     32 H          -1.999953    3.211869   -2.197320 H         1 <1>         0.151100 
     33 H          -0.943237    0.950092   -2.648481 H         1 <1>         0.138500 
     34 H          -2.277727    0.558694   -3.735025 H         1 <1>         0.142300 
     35 H          -2.943901   -0.437037   -1.857713 H         1 <1>         0.302800 
     36 H          -2.154786    1.937485   -0.361380 H         1 <1>         0.181400 
     37 H          -2.310180    0.904362    2.353076 H         1 <1>         0.147500 
     38 H          -4.142759    0.669691    3.987458 H         1 <1>         0.157000 
     39 H          -6.954516    0.203111    0.759842 H         1 <1>         0.156100 
     40 H          -5.100313    0.467591   -0.877068 H         1 <1>         0.162000 
     41 H          -2.145478   -1.823952    0.345625 H         1 <1>         0.151400 
     42 H           0.063479   -2.947742    0.772441 H         1 <1>         0.158700 
     43 H           2.027718    1.803911   -0.064160 H         1 <1>         0.346800 
     44 H           3.399042   -1.563842    0.763190 H         1 <1>         0.189400 
     45 H           5.831381   -1.919445    1.053941 H         1 <1>         0.159800 
     46 H           6.549501    2.245915    0.249654 H         1 <1>         0.159700 
     47 H           4.128605    2.601764   -0.040448 H         1 <1>         0.137700 
@<TRIPOS>BOND
     1   28   47 1    
     2   27   46 1    
     3    1   32 1    
     4   28   27 ar   
     5   21   28 ar   
     6   27   24 ar   
     7   20   43 1    
     8    1   31 1    
     9    4   36 1    
    10    1   30 1    
    11    7   38 1    
    12    2    1 1    
    13    6   37 1    
    14    6    7 ar   
    15    7    8 ar   
    16    5    6 ar   
    17   20   21 1    
    18   19   20 1    
    19   11   12 3    
    20   10   11 1    
    21   21   22 ar   
    22    9   10 3    
    23    8    9 1    
    24   24   25 1    
    25   24   23 ar   
    26   29   19 ar   
    27   15   29 ar   
    28   13    8 ar   
    29   25   26 3    
    30    4    5 1    
    31    5   14 ar   
    32    4   15 1    
    33    3    4 1    
    34   14   13 ar   
    35   13   39 1    
    36   19   18 ar   
    37   14   40 1    
    38    2   33 1    
    39    2    3 1    
    40    2   34 1    
    41   15   16 ar   
    42    3   35 1    
    43   22   23 ar   
    44   22   44 1    
    45   23   45 1    
    46   18   17 ar   
    47   16   17 ar   
    48   16   41 1    
    49   17   42 1    
@<TRIPOS>SUBSTRUCTURE
     1 ****       32 TEMP              0 ****  ****    0 ROOT 
