#	Name:			MG-2014-EJMC-600-4-1e
#	Creating user name:	Administrator
#	Creation time:		Sun Jul 05 16:39:13 2020

#	Modifying user name:	Administrator
#	Modification time:	Sun Jul 05 16:40:47 2020

@<TRIPOS>MOLECULE
MG-2014-EJMC-600-4-1e
   42    44     1     0     0
SMALL
MULLIKEN_CHARGES
INVALID_CHARGES
Gaussian 16 #p B3LYP/6-31G* opt
@<TRIPOS>ATOM
      1 C          -1.873951    2.370010    2.097942 C.3       1 <1>        -0.307500 
      2 N          -2.814526    1.284260    1.812559 N.3       1 <1>        -0.545700 
      3 C          -2.651936    0.546785    0.548187 C.3       1 <1>        -0.106800 
      4 C          -3.071664    1.393993   -0.654672 C.ar      1 <1>         0.165200 
      5 C          -2.587554    1.135068   -1.944119 C.ar      1 <1>        -0.173700 
      6 C          -3.046191    1.859350   -3.039910 C.ar      1 <1>        -0.148600 
      7 C          -4.006681    2.867950   -2.862717 C.ar      1 <1>         0.132100 
      8 C          -4.477557    3.622523   -3.987351 C.1       1 <1>         0.236100 
      9 N          -4.859227    4.235447   -4.899595 N.1       1 <1>        -0.477800 
     10 C          -4.502824    3.129609   -1.575480 C.ar      1 <1>        -0.139300 
     11 C          -4.039270    2.394448   -0.489340 C.ar      1 <1>        -0.182400 
     12 C          -1.275993   -0.105367    0.420212 C.ar      1 <1>         0.326600 
     13 C          -1.094636   -1.461581    0.731622 C.ar      1 <1>        -0.224700 
     14 C           0.205049   -1.949352    0.668778 C.ar      1 <1>         0.074300 
     15 N           1.256530   -1.192283    0.338155 N.ar      1 <1>        -0.474400 
     16 C           0.978193    0.090271    0.062332 C.ar      1 <1>         0.684900 
     17 N           1.986202    0.960309   -0.290391 N.pl3     1 <1>        -0.764300 
     18 C           3.365916    0.798601   -0.436508 C.ar      1 <1>         0.381100 
     19 C           4.096407    1.939777   -0.825419 C.ar      1 <1>        -0.205600 
     20 C           5.469703    1.882689   -0.995149 C.ar      1 <1>        -0.140000 
     21 C           6.158154    0.675678   -0.779894 C.ar      1 <1>         0.132100 
     22 C           7.577191    0.608455   -0.952268 C.1       1 <1>         0.228500 
     23 N           8.731612    0.554687   -1.092141 N.1       1 <1>        -0.482600 
     24 C           5.430256   -0.461267   -0.392891 C.ar      1 <1>        -0.152900 
     25 C           4.052404   -0.410449   -0.221114 C.ar      1 <1>        -0.159700 
     26 N          -0.241579    0.669247    0.083626 N.ar      1 <1>        -0.536100 
     27 H          -0.826106    2.057094    2.212325 H         1 <1>         0.144500 
     28 H          -1.913861    3.106061    1.290276 H         1 <1>         0.166200 
     29 H          -2.195975    2.861831    3.021867 H         1 <1>         0.153700 
     30 H          -2.820552    0.620015    2.582578 H         1 <1>         0.305100 
     31 H          -3.376533   -0.277507    0.614209 H         1 <1>         0.164600 
     32 H          -1.840860    0.364311   -2.101059 H         1 <1>         0.142600 
     33 H          -2.662971    1.651372   -4.033775 H         1 <1>         0.158600 
     34 H          -5.249731    3.904542   -1.435355 H         1 <1>         0.158600 
     35 H          -4.425533    2.586407    0.505804 H         1 <1>         0.166800 
     36 H          -1.927468   -2.102632    0.999693 H         1 <1>         0.146000 
     37 H           0.422583   -2.993773    0.886173 H         1 <1>         0.158500 
     38 H           1.626242    1.887771   -0.478384 H         1 <1>         0.348700 
     39 H           3.574721    2.878790   -0.995035 H         1 <1>         0.139300 
     40 H           6.017800    2.769945   -1.295027 H         1 <1>         0.160200 
     41 H           5.954027   -1.397031   -0.225154 H         1 <1>         0.159400 
     42 H           3.499920   -1.289911    0.075930 H         1 <1>         0.188600 
@<TRIPOS>BOND
     1   14   37 1    
     2    6   33 1    
     3   13   36 1    
     4    5   32 1    
     5   14   13 ar   
     6   15   14 ar   
     7   12   13 ar   
     8   24   41 1    
     9    5    6 ar   
    10    6    7 ar   
    11   25   42 1    
    12   16   15 ar   
    13    4    5 ar   
    14    3   31 1    
    15   25   24 ar   
    16   24   21 ar   
    17    8    9 3    
    18   18   25 ar   
    19    7    8 1    
    20   12    3 1    
    21   26   12 ar   
    22    7   10 ar   
    23   16   26 ar   
    24   17   16 1    
    25    3    4 1    
    26    4   11 ar   
    27    3    2 1    
    28   22   23 3    
    29   21   22 1    
    30   21   20 ar   
    31   18   17 1    
    32   18   19 ar   
    33   17   38 1    
    34   10   11 ar   
    35   10   34 1    
    36   11   35 1    
    37   20   19 ar   
    38   20   40 1    
    39   19   39 1    
    40    2   30 1    
    41    2    1 1    
    42    1   27 1    
    43    1   28 1    
    44    1   29 1    
@<TRIPOS>SUBSTRUCTURE
     1 ****       23 TEMP              0 ****  ****    0 ROOT 
