#	Name:			MG-2014-EJMC-600-4-1o
#	Creating user name:	Administrator
#	Creation time:		Sun Jul 05 16:39:14 2020

#	Modifying user name:	Administrator
#	Modification time:	Sun Jul 05 16:40:47 2020

@<TRIPOS>MOLECULE
MG-2014-EJMC-600-4-1o
   50    52     1     0     0
SMALL
MULLIKEN_CHARGES
INVALID_CHARGES
Gaussian 16 #p B3LYP/6-31G* opt
@<TRIPOS>ATOM
      1 C          -1.491141   -0.577576   -3.239625 C.3       1 <1>        -0.425900 
      2 C          -2.814873   -0.151225   -2.584832 C.3       1 <1>         0.059700 
      3 C          -3.857939    0.142590   -3.670409 C.3       1 <1>        -0.483900 
      4 N          -2.625793    1.057106   -1.755714 N.3       1 <1>        -0.574600 
      5 C          -2.413469    0.964482   -0.311968 C.3       1 <1>        -0.098000 
      6 C          -3.614888    0.563937    0.563428 C.ar      1 <1>         0.153200 
      7 C          -3.474957    0.585741    1.962187 C.ar      1 <1>        -0.179500 
      8 C          -4.541478    0.293094    2.800388 C.ar      1 <1>        -0.128200 
      9 C          -5.800174   -0.034924    2.255051 C.ar      1 <1>        -0.005400 
     10 C          -6.898511   -0.339539    3.104023 C.1       1 <1>         0.027000 
     11 C          -7.838957   -0.601672    3.831805 C.1       1 <1>         0.386800 
     12 C          -8.895938   -0.896210    4.648067 C.1       1 <1>        -0.066000 
     13 N          -9.799204   -1.148239    5.345000 N.1       1 <1>        -0.463300 
     14 C          -5.950100   -0.050497    0.857018 C.ar      1 <1>        -0.130400 
     15 C          -4.869759    0.250029    0.031080 C.ar      1 <1>        -0.199600 
     16 C          -1.170510    0.126787    0.004752 C.ar      1 <1>         0.325300 
     17 C          -1.225849   -1.241680    0.304171 C.ar      1 <1>        -0.193100 
     18 C          -0.010794   -1.876379    0.534829 C.ar      1 <1>         0.067100 
     19 N           1.167570   -1.246308    0.490406 N.ar      1 <1>        -0.472700 
     20 C           1.107477    0.063669    0.208720 C.ar      1 <1>         0.688500 
     21 N           2.260067    0.816362    0.146780 N.pl3     1 <1>        -0.764500 
     22 C           3.606718    0.498398    0.331059 C.ar      1 <1>         0.382200 
     23 C           4.083794   -0.784698    0.656788 C.ar      1 <1>        -0.160100 
     24 C           5.447789   -0.992831    0.819759 C.ar      1 <1>        -0.152900 
     25 C           6.368206    0.056766    0.665520 C.ar      1 <1>         0.131700 
     26 C           7.770313   -0.172061    0.836346 C.1       1 <1>         0.227900 
     27 N           8.911319   -0.356799    0.975123 N.1       1 <1>        -0.483500 
     28 C           5.889046    1.338034    0.339690 C.ar      1 <1>        -0.140200 
     29 C           4.530740    1.551865    0.176013 C.ar      1 <1>        -0.205400 
     30 N          -0.009435    0.781151   -0.033269 N.ar      1 <1>        -0.539000 
     31 H          -1.632521   -1.484802   -3.839725 H         1 <1>         0.134300 
     32 H          -1.123982    0.220855   -3.893803 H         1 <1>         0.149600 
     33 H          -0.717162   -0.782767   -2.496655 H         1 <1>         0.151400 
     34 H          -3.185646   -0.989306   -1.972643 H         1 <1>         0.121800 
     35 H          -4.844224    0.370408   -3.247444 H         1 <1>         0.148000 
     36 H          -3.542156    1.001758   -4.275312 H         1 <1>         0.157600 
     37 H          -3.972059   -0.714517   -4.341481 H         1 <1>         0.159200 
     38 H          -3.340253    1.752075   -1.947269 H         1 <1>         0.307200 
     39 H          -2.137248    1.980834   -0.002269 H         1 <1>         0.173900 
     40 H          -2.512910    0.839639    2.400507 H         1 <1>         0.148200 
     41 H          -4.416636    0.317249    3.878404 H         1 <1>         0.158500 
     42 H          -6.915937   -0.296351    0.426839 H         1 <1>         0.156500 
     43 H          -5.013252    0.244939   -1.043282 H         1 <1>         0.142600 
     44 H          -2.164395   -1.779344    0.358776 H         1 <1>         0.156300 
     45 H           0.028464   -2.939229    0.767350 H         1 <1>         0.158700 
     46 H           2.059052    1.780830   -0.086414 H         1 <1>         0.348400 
     47 H           3.382691   -1.597883    0.776175 H         1 <1>         0.188600 
     48 H           5.809210   -1.984993    1.070998 H         1 <1>         0.159000 
     49 H           6.587455    2.159461    0.216793 H         1 <1>         0.159000 
     50 H           4.171915    2.547094   -0.076178 H         1 <1>         0.138000 
@<TRIPOS>BOND
     1   29   50 1    
     2   28   49 1    
     3    5   39 1    
     4   21   46 1    
     5    4   38 1    
     6   29   28 ar   
     7   22   29 ar   
     8   28   25 ar   
     9    7   40 1    
    10    4    5 1    
    11    5    6 1    
    12    5   16 1    
    13    2    4 1    
    14    7    8 ar   
    15    6    7 ar   
    16    8   41 1    
    17   21   22 1    
    18   20   21 1    
    19   16   30 ar   
    20   30   20 ar   
    21    8    9 ar   
    22    6   15 ar   
    23    3   36 1    
    24   22   23 ar   
    25   15   43 1    
    26   15   14 ar   
    27   14    9 ar   
    28    9   10 1    
    29   16   17 ar   
    30   14   42 1    
    31   10   11 3    
    32   20   19 ar   
    33   25   26 1    
    34   25   24 ar   
    35    3   35 1    
    36   11   12 1    
    37   26   27 3    
    38   12   13 3    
    39    1   32 1    
    40    2    3 1    
    41    3   37 1    
    42    2    1 1    
    43    2   34 1    
    44   23   24 ar   
    45   23   47 1    
    46    1   33 1    
    47    1   31 1    
    48   24   48 1    
    49   17   44 1    
    50   17   18 ar   
    51   19   18 ar   
    52   18   45 1    
@<TRIPOS>SUBSTRUCTURE
     1 ****       36 TEMP              0 ****  ****    0 ROOT 
