#	Name:			MG-2014-EJMC-600-4-1k
#	Creating user name:	Administrator
#	Creation time:		Sun Jul 05 16:39:14 2020

#	Modifying user name:	Administrator
#	Modification time:	Sun Jul 05 16:40:47 2020

@<TRIPOS>MOLECULE
MG-2014-EJMC-600-4-1k
   48    50     1     0     0
SMALL
MULLIKEN_CHARGES
INVALID_CHARGES
Gaussian 16 #p B3LYP/6-31G* opt
@<TRIPOS>ATOM
      1 C          -5.687877   -2.118958    2.360481 C.3       1 <1>        -0.436300 
      2 C          -6.052003   -1.101306    1.275527 C.3       1 <1>        -0.268300 
      3 C          -5.027161    0.025020    1.103478 C.3       1 <1>        -0.116700 
      4 N          -3.729321   -0.497987    0.661067 N.3       1 <1>        -0.555400 
      5 C          -2.675144    0.510304    0.510155 C.3       1 <1>        -0.119500 
      6 C          -2.912436    1.485075   -0.644661 C.ar      1 <1>         0.225000 
      7 C          -2.824917    1.048591   -1.975440 C.ar      1 <1>        -0.190700 
      8 C          -3.108027    1.905445   -3.031377 C.ar      1 <1>        -0.137700 
      9 C          -3.491823    3.233300   -2.771341 C.ar      1 <1>         0.125500 
     10 C          -3.786030    4.123833   -3.855909 C.1       1 <1>         0.238000 
     11 N          -4.025135    4.846133   -4.736043 N.1       1 <1>        -0.475300 
     12 C          -3.582787    3.681180   -1.445059 C.ar      1 <1>        -0.133800 
     13 C          -3.294364    2.808201   -0.398554 C.ar      1 <1>        -0.204200 
     14 C          -1.296313   -0.148834    0.435961 C.ar      1 <1>         0.309300 
     15 C          -1.092773   -1.498157    0.747654 C.ar      1 <1>        -0.208800 
     16 C           0.218371   -1.955505    0.670542 C.ar      1 <1>         0.072000 
     17 N           1.252318   -1.180047    0.328121 N.ar      1 <1>        -0.474500 
     18 C           0.945588    0.097983    0.060630 C.ar      1 <1>         0.689800 
     19 N           1.934079    0.991085   -0.296127 N.pl3     1 <1>        -0.766600 
     20 C           3.314685    0.858737   -0.450492 C.ar      1 <1>         0.382300 
     21 C           4.020467    2.016018   -0.838899 C.ar      1 <1>        -0.205800 
     22 C           5.393511    1.987325   -1.016971 C.ar      1 <1>        -0.140300 
     23 C           6.107786    0.793568   -0.810847 C.ar      1 <1>         0.131300 
     24 C           7.526540    0.755840   -0.992133 C.1       1 <1>         0.227500 
     25 N           8.680992    0.726000   -1.139657 N.1       1 <1>        -0.484400 
     26 C           5.404867   -0.359241   -0.424278 C.ar      1 <1>        -0.153100 
     27 C           4.027410   -0.337042   -0.244280 C.ar      1 <1>        -0.160400 
     28 N          -0.283522    0.650117    0.095573 N.ar      1 <1>        -0.544500 
     29 H          -4.725535   -2.594577    2.149350 H         1 <1>         0.157400 
     30 H          -6.449156   -2.903308    2.435656 H         1 <1>         0.145100 
     31 H          -5.609896   -1.634248    3.341482 H         1 <1>         0.142500 
     32 H          -7.021791   -0.641446    1.505643 H         1 <1>         0.142500 
     33 H          -6.185250   -1.614010    0.311115 H         1 <1>         0.131700 
     34 H          -5.434439    0.787293    0.417039 H         1 <1>         0.130100 
     35 H          -4.866605    0.524005    2.069195 H         1 <1>         0.139800 
     36 H          -3.854678   -0.988218   -0.225324 H         1 <1>         0.297900 
     37 H          -2.676453    1.096565    1.439720 H         1 <1>         0.169500 
     38 H          -2.516002    0.028178   -2.190611 H         1 <1>         0.140000 
     39 H          -3.031357    1.560804   -4.057690 H         1 <1>         0.161700 
     40 H          -3.877160    4.706083   -1.242834 H         1 <1>         0.161400 
     41 H          -3.362768    3.165030    0.626057 H         1 <1>         0.142600 
     42 H          -1.915461   -2.134303    1.044207 H         1 <1>         0.166500 
     43 H           0.459944   -2.993584    0.893066 H         1 <1>         0.156000 
     44 H           1.553375    1.911775   -0.475649 H         1 <1>         0.347500 
     45 H           3.478950    2.945008   -1.001595 H         1 <1>         0.137900 
     46 H           5.921709    2.886676   -1.316325 H         1 <1>         0.158800 
     47 H           5.948418   -1.284954   -0.263282 H         1 <1>         0.158200 
     48 H           3.494132   -1.228436    0.052395 H         1 <1>         0.188500 
@<TRIPOS>BOND
     1   13   41 1    
     2   12   40 1    
     3    3   35 1    
     4    5   37 1    
     5   13   12 ar   
     6    6   13 ar   
     7   21   45 1    
     8    1   31 1    
     9   12    9 ar   
    10   22   46 1    
    11   19   44 1    
    12   21   22 ar   
    13   20   21 ar   
    14   22   23 ar   
    15    3   34 1    
    16    3    4 1    
    17    2    3 1    
    18    5    6 1    
    19    5   14 1    
    20    4    5 1    
    21   19   20 1    
    22   18   19 1    
    23   14   28 ar   
    24   28   18 ar   
    25    2   32 1    
    26    6    7 ar   
    27   20   27 ar   
    28    1    2 1    
    29    1   29 1    
    30    1   30 1    
    31   14   15 ar   
    32   18   17 ar   
    33   23   24 1    
    34   23   26 ar   
    35    4   36 1    
    36   24   25 3    
    37    2   33 1    
    38    9   10 1    
    39    9    8 ar   
    40   27   26 ar   
    41   27   48 1    
    42   26   47 1    
    43   10   11 3    
    44   15   42 1    
    45   15   16 ar   
    46   17   16 ar   
    47   16   43 1    
    48    7    8 ar   
    49    7   38 1    
    50    8   39 1    
@<TRIPOS>SUBSTRUCTURE
     1 ****       31 TEMP              0 ****  ****    0 ROOT 
