#	Name:			MG-2014-EJMC-600-1XING
#	Creating user name:	Administrator
#	Creation time:		Sun Jul 05 16:39:13 2020

#	Modifying user name:	Administrator
#	Modification time:	Sun Jul 05 16:40:47 2020

@<TRIPOS>MOLECULE
MG-2014-EJMC-600-1XING
   46    49     1     0     0
SMALL
MULLIKEN_CHARGES
INVALID_CHARGES
Gaussian 16 #p B3LYP/6-31G* opt
@<TRIPOS>ATOM
      1 N           8.737472   -0.181795   -1.426076 N.1       1 <1>        -0.482200 
      2 C           7.600670   -0.022303   -1.233271 C.1       1 <1>         0.228700 
      3 C           6.203309    0.175790   -0.996105 C.ar      1 <1>         0.132200 
      4 C           5.380480   -0.901264   -0.628411 C.ar      1 <1>        -0.152800 
      5 C           4.022438   -0.723155   -0.394261 C.ar      1 <1>        -0.159200 
      6 C           3.453308    0.556619   -0.526094 C.ar      1 <1>         0.381500 
      7 N           2.102822    0.846081   -0.315208 N.pl3     1 <1>        -0.764700 
      8 C           1.029262    0.064282    0.051340 C.ar      1 <1>         0.693000 
      9 N           1.192817   -1.245749    0.278468 N.ar      1 <1>        -0.475600 
     10 C           0.086485   -1.911961    0.628952 C.ar      1 <1>         0.073900 
     11 C          -1.157498   -1.308120    0.758408 C.ar      1 <1>        -0.200300 
     12 C          -1.217049    0.067613    0.498531 C.ar      1 <1>         0.343200 
     13 C          -2.532090    0.848383    0.595957 C.3       1 <1>        -0.145800 
     14 N          -2.390708    2.229068    1.062437 N.3       1 <1>        -0.541100 
     15 C          -1.948417    2.353820    2.431648 C.3       1 <1>         0.021500 
     16 C          -3.011215    2.328586    3.503208 C.3       1 <1>        -0.307300 
     17 C          -2.317690    3.623033    3.152118 C.3       1 <1>        -0.320100 
     18 C          -3.285763    0.836820   -0.734580 C.ar      1 <1>         0.184600 
     19 C          -2.637314    1.096627   -1.949565 C.ar      1 <1>        -0.182300 
     20 C          -3.349529    1.132976   -3.144672 C.ar      1 <1>        -0.137400 
     21 C          -4.734357    0.901217   -3.143099 C.ar      1 <1>         0.130800 
     22 C          -5.472019    0.929896   -4.372368 C.1       1 <1>         0.238100 
     23 N          -6.070693    0.952539   -5.369615 N.1       1 <1>        -0.475500 
     24 C          -5.392685    0.638332   -1.930307 C.ar      1 <1>        -0.136700 
     25 C          -4.668308    0.609618   -0.743760 C.ar      1 <1>        -0.181500 
     26 N          -0.128818    0.754674    0.145980 N.ar      1 <1>        -0.564700 
     27 C           4.279065    1.637567   -0.895495 C.ar      1 <1>        -0.205900 
     28 C           5.632043    1.453788   -1.127351 C.ar      1 <1>        -0.139800 
     29 H           5.813707   -1.891155   -0.525025 H         1 <1>         0.160200 
     30 H           3.396482   -1.556754   -0.111079 H         1 <1>         0.189800 
     31 H           1.833692    1.813273   -0.443314 H         1 <1>         0.344100 
     32 H           0.215113   -2.976528    0.816939 H         1 <1>         0.159500 
     33 H          -2.036987   -1.872605    1.047876 H         1 <1>         0.149400 
     34 H          -3.157039    0.333017    1.334267 H         1 <1>         0.151100 
     35 H          -1.742595    2.716921    0.445583 H         1 <1>         0.312200 
     36 H          -0.984691    1.908566    2.694095 H         1 <1>         0.134600 
     37 H          -4.039688    2.213912    3.173144 H         1 <1>         0.157600 
     38 H          -2.777812    1.851254    4.450699 H         1 <1>         0.151900 
     39 H          -1.603438    4.040313    3.856299 H         1 <1>         0.152700 
     40 H          -2.888730    4.355373    2.589577 H         1 <1>         0.164200 
     41 H          -1.565636    1.269318   -1.961650 H         1 <1>         0.155300 
     42 H          -2.840940    1.335237   -4.081859 H         1 <1>         0.161200 
     43 H          -6.463054    0.458904   -1.927750 H         1 <1>         0.161400 
     44 H          -5.185262    0.415090    0.192100 H         1 <1>         0.143200 
     45 H           3.848387    2.630901   -1.000075 H         1 <1>         0.137200 
     46 H           6.254523    2.296103   -1.410935 H         1 <1>         0.160100 
@<TRIPOS>BOND
     1   28   46 1    
     2   17   40 1    
     3   27   45 1    
     4   17   39 1    
     5   15   17 1    
     6   16   17 1    
     7   27   28 ar   
     8   28    3 ar   
     9   14   35 1    
    10    6   27 ar   
    11    7   31 1    
    12   20   42 1    
    13   14   15 1    
    14   13   14 1    
    15   19   41 1    
    16   22   23 3    
    17   15   36 1    
    18   15   16 1    
    19   19   20 ar   
    20   20   21 ar   
    21   21   22 1    
    22   18   19 ar   
    23    2    1 3    
    24    3    2 1    
    25    7    6 1    
    26    8    7 1    
    27    3    4 ar   
    28   16   37 1    
    29   16   38 1    
    30    6    5 ar   
    31   24   21 ar   
    32   26    8 ar   
    33   12   26 ar   
    34   13   18 1    
    35   18   25 ar   
    36   25   24 ar   
    37   24   43 1    
    38   13   12 1    
    39   13   34 1    
    40   25   44 1    
    41    8    9 ar   
    42    4    5 ar   
    43    4   29 1    
    44    5   30 1    
    45   12   11 ar   
    46    9   10 ar   
    47   11   10 ar   
    48   11   33 1    
    49   10   32 1    
@<TRIPOS>SUBSTRUCTURE
     1 ****       23 TEMP              0 ****  ****    0 ROOT 
