#	Name:			MG-2014-EJMC-600-4-1f
#	Creating user name:	Administrator
#	Creation time:		Sun Jul 05 16:39:13 2020

#	Modifying user name:	Administrator
#	Modification time:	Sun Jul 05 16:40:47 2020

@<TRIPOS>MOLECULE
MG-2014-EJMC-600-4-1f
   44    46     1     0     0
SMALL
MULLIKEN_CHARGES
INVALID_CHARGES
Gaussian 16 #p B3LYP/6-31G* opt
@<TRIPOS>ATOM
      1 C          -4.326422   -0.938159    1.027620 C.3       1 <1>        -0.315200 
      2 N          -3.808407   -0.534577   -0.278724 N.3       1 <1>        -0.545100 
      3 C          -2.663460    0.375755   -0.312196 C.3       1 <1>        -0.106300 
      4 C          -3.007636    1.662700    0.438728 C.ar      1 <1>         0.176200 
      5 C          -3.934513    2.537593   -0.146183 C.ar      1 <1>        -0.164800 
      6 C          -4.327851    3.703454    0.497332 C.ar      1 <1>        -0.129000 
      7 C          -3.798414    4.022438    1.764150 C.ar      1 <1>        -0.003800 
      8 C          -4.191528    5.214776    2.430713 C.1       1 <1>         0.024400 
      9 C          -4.529590    6.236449    3.000671 C.1       1 <1>         0.387200 
     10 C          -4.908644    7.383524    3.641384 C.1       1 <1>        -0.066300 
     11 N          -5.232646    8.363729    4.188745 N.1       1 <1>        -0.464300 
     12 C          -2.875140    3.142569    2.359210 C.ar      1 <1>        -0.136500 
     13 C          -2.489736    1.979314    1.699812 C.ar      1 <1>        -0.169100 
     14 C          -1.294502   -0.214800    0.057827 C.ar      1 <1>         0.309500 
     15 C          -1.100539   -1.562622    0.386521 C.ar      1 <1>        -0.223000 
     16 C           0.212282   -1.966406    0.609583 C.ar      1 <1>         0.072700 
     17 N           1.261636   -1.145379    0.519911 N.ar      1 <1>        -0.473800 
     18 C           0.968913    0.122605    0.190375 C.ar      1 <1>         0.688100 
     19 N           1.973305    1.056594    0.062236 N.pl3     1 <1>        -0.765000 
     20 C           3.360611    0.978149    0.203711 C.ar      1 <1>         0.381500 
     21 C           4.084465    2.168394   -0.012181 C.ar      1 <1>        -0.205600 
     22 C           5.464326    2.194004    0.103957 C.ar      1 <1>        -0.140100 
     23 C           6.166362    1.023309    0.441439 C.ar      1 <1>         0.131900 
     24 C           7.592038    1.041184    0.562868 C.1       1 <1>         0.228300 
     25 N           8.751941    1.056428    0.661206 N.1       1 <1>        -0.482800 
     26 C           5.445106   -0.162273    0.656766 C.ar      1 <1>        -0.152900 
     27 C           4.060791   -0.194380    0.541884 C.ar      1 <1>        -0.160000 
     28 N          -0.259833    0.623576   -0.045138 N.ar      1 <1>        -0.535600 
     29 H          -4.754537   -0.069118    1.535549 H         1 <1>         0.172100 
     30 H          -3.589882   -1.393953    1.710445 H         1 <1>         0.128800 
     31 H          -5.134173   -1.659019    0.867858 H         1 <1>         0.157300 
     32 H          -3.631116   -1.341644   -0.870422 H         1 <1>         0.304100 
     33 H          -2.545811    0.664131   -1.367284 H         1 <1>         0.172600 
     34 H          -4.357158    2.289978   -1.115834 H         1 <1>         0.149400 
     35 H          -5.041134    4.375903    0.031569 H         1 <1>         0.157000 
     36 H          -2.466962    3.378405    3.336778 H         1 <1>         0.156500 
     37 H          -1.770997    1.319387    2.173843 H         1 <1>         0.144900 
     38 H          -1.920749   -2.264183    0.462104 H         1 <1>         0.143600 
     39 H           0.439227   -2.997986    0.873841 H         1 <1>         0.157900 
     40 H           1.603607    1.965432   -0.187285 H         1 <1>         0.348400 
     41 H           3.552316    3.080053   -0.273705 H         1 <1>         0.139000 
     42 H           6.007078    3.118221   -0.065536 H         1 <1>         0.160000 
     43 H           5.979460   -1.070402    0.917867 H         1 <1>         0.159200 
     44 H           3.513745   -1.110658    0.709456 H         1 <1>         0.188400 
@<TRIPOS>BOND
     1    1   30 1    
     2   12   36 1    
     3   16   39 1    
     4   13   37 1    
     5   26   43 1    
     6    1   29 1    
     7   16   17 ar   
     8   15   16 ar   
     9    1   31 1    
    10   27   44 1    
    11    2    1 1    
    12   15   38 1    
    13   13   12 ar   
    14   12    7 ar   
    15   10   11 3    
    16   18   17 ar   
    17    4   13 ar   
    18   27   26 ar   
    19   26   23 ar   
    20   14   15 ar   
    21    9   10 1    
    22   20   27 ar   
    23    8    9 3    
    24   24   25 3    
    25   23   24 1    
    26    7    8 1    
    27   23   22 ar   
    28    7    6 ar   
    29   18   19 1    
    30   28   18 ar   
    31   14   28 ar   
    32    3   14 1    
    33   19   20 1    
    34   20   21 ar   
    35    2   32 1    
    36    3    2 1    
    37   19   40 1    
    38    4    3 1    
    39    4    5 ar   
    40   22   21 ar   
    41   22   42 1    
    42    3   33 1    
    43   21   41 1    
    44    6    5 ar   
    45    6   35 1    
    46    5   34 1    
@<TRIPOS>SUBSTRUCTURE
     1 ****       11 TEMP              0 ****  ****    0 ROOT 
