#	Name:			MG-2014-EJMC-600-4-1m
#	Creating user name:	Administrator
#	Creation time:		Sun Jul 05 16:39:14 2020

#	Modifying user name:	Administrator
#	Modification time:	Sun Jul 05 16:40:47 2020

@<TRIPOS>MOLECULE
MG-2014-EJMC-600-4-1m
   47    49     1     0     0
SMALL
MULLIKEN_CHARGES
INVALID_CHARGES
Gaussian 16 #p B3LYP/6-31G* opt
@<TRIPOS>ATOM
      1 C          -3.422318    5.244170    1.935431 C.3       1 <1>        -0.444600 
      2 C          -2.554445    4.053141    1.515119 C.3       1 <1>        -0.260600 
      3 C          -2.954154    3.490006    0.138298 C.3       1 <1>        -0.129600 
      4 N          -2.178242    2.353055   -0.349284 N.3       1 <1>        -0.557200 
      5 C          -2.412332    1.080974    0.313664 C.3       1 <1>        -0.120300 
      6 C          -1.161790    0.197886    0.282685 C.ar      1 <1>         0.354300 
      7 C          -1.225221   -1.177800    0.550951 C.ar      1 <1>        -0.191400 
      8 C          -0.017838   -1.859132    0.578468 C.ar      1 <1>         0.069400 
      9 N           1.166968   -1.272240    0.361691 N.ar      1 <1>        -0.479800 
     10 C           1.116872    0.041134    0.115319 C.ar      1 <1>         0.703500 
     11 N           2.274344    0.751098   -0.127054 N.pl3     1 <1>        -0.766700 
     12 C           3.616513    0.373537   -0.181224 C.ar      1 <1>         0.383200 
     13 C           4.083543   -0.936415    0.034281 C.ar      1 <1>        -0.159400 
     14 C           5.444642   -1.204696   -0.040819 C.ar      1 <1>        -0.153300 
     15 C           6.372477   -0.190484   -0.329129 C.ar      1 <1>         0.131100 
     16 C           7.771580   -0.481116   -0.402320 C.1       1 <1>         0.227200 
     17 N           8.910283   -0.715995   -0.461695 N.1       1 <1>        -0.485100 
     18 C           5.903513    1.117608   -0.544851 C.ar      1 <1>        -0.140300 
     19 C           4.548135    1.391543   -0.471348 C.ar      1 <1>        -0.205700 
     20 N           0.004185    0.805442    0.075495 N.ar      1 <1>        -0.582700 
     21 C          -3.655021    0.384659   -0.243371 C.ar      1 <1>         0.197000 
     22 C          -4.756024    0.182748    0.600046 C.ar      1 <1>        -0.203900 
     23 C          -5.935764   -0.411741    0.151666 C.ar      1 <1>        -0.124900 
     24 C          -6.035186   -0.821454   -1.176168 C.ar      1 <1>        -0.125400 
     25 C          -4.955939   -0.638223   -2.040845 C.ar      1 <1>        -0.129600 
     26 C          -3.783512   -0.042643   -1.575976 C.ar      1 <1>        -0.115700 
     27 CL         -2.460511    0.128745   -2.721045 Cl        1 <1>        -0.004900 
     28 H          -4.478451    4.957844    2.013603 H         1 <1>         0.143700 
     29 H          -3.112918    5.642504    2.907885 H         1 <1>         0.146400 
     30 H          -3.355840    6.060052    1.205159 H         1 <1>         0.145500 
     31 H          -1.498630    4.357347    1.480801 H         1 <1>         0.130200 
     32 H          -2.621334    3.265645    2.278391 H         1 <1>         0.131200 
     33 H          -4.012980    3.199188    0.150666 H         1 <1>         0.140200 
     34 H          -2.870454    4.289918   -0.609789 H         1 <1>         0.141300 
     35 H          -1.179560    2.544719   -0.354510 H         1 <1>         0.319600 
     36 H          -2.611148    1.212354    1.395963 H         1 <1>         0.148000 
     37 H          -2.167998   -1.683464    0.719562 H         1 <1>         0.154900 
     38 H           0.014803   -2.928138    0.780787 H         1 <1>         0.155500 
     39 H           2.082004    1.727934   -0.308027 H         1 <1>         0.343900 
     40 H           3.375793   -1.722017    0.255383 H         1 <1>         0.189800 
     41 H           5.797944   -2.217353    0.126372 H         1 <1>         0.158100 
     42 H           6.607442    1.912362   -0.769343 H         1 <1>         0.157800 
     43 H           4.197395    2.407000   -0.640499 H         1 <1>         0.136100 
     44 H          -4.679804    0.507991    1.635290 H         1 <1>         0.135600 
     45 H          -6.768812   -0.548149    0.835027 H         1 <1>         0.138400 
     46 H          -6.946155   -1.283818   -1.545527 H         1 <1>         0.142200 
     47 H          -5.014545   -0.955992   -3.076511 H         1 <1>         0.156900 
@<TRIPOS>BOND
     1    8   38 1    
     2   22   44 1    
     3    7   37 1    
     4   23   45 1    
     5    7    8 ar   
     6    8    9 ar   
     7    6    7 ar   
     8    2   32 1    
     9    5   36 1    
    10   10    9 ar   
    11   22   23 ar   
    12   21   22 ar   
    13   13   40 1    
    14    1   29 1    
    15   14   41 1    
    16   23   24 ar   
    17    5    6 1    
    18    6   20 ar   
    19    1   28 1    
    20   13   14 ar   
    21   12   13 ar   
    22   14   15 ar   
    23   20   10 ar   
    24   10   11 1    
    25    5   21 1    
    26    4    5 1    
    27    2    1 1    
    28    2   31 1    
    29    3    2 1    
    30    1   30 1    
    31   21   26 ar   
    32   24   46 1    
    33   24   25 ar   
    34   11   12 1    
    35   12   19 ar   
    36   11   39 1    
    37   15   16 1    
    38   15   18 ar   
    39   16   17 3    
    40    3   33 1    
    41    3    4 1    
    42    3   34 1    
    43    4   35 1    
    44   19   18 ar   
    45   19   43 1    
    46   18   42 1    
    47   26   25 ar   
    48   26   27 1    
    49   25   47 1    
@<TRIPOS>SUBSTRUCTURE
     1 ****       32 TEMP              0 ****  ****    0 ROOT 
