#	Name:			MG-2014-EJMC-600-4-1h
#	Creating user name:	Administrator
#	Creation time:		Sun Jul 05 16:39:13 2020

#	Modifying user name:	Administrator
#	Modification time:	Sun Jul 05 16:40:47 2020

@<TRIPOS>MOLECULE
MG-2014-EJMC-600-4-1h
   45    47     1     0     0
SMALL
MULLIKEN_CHARGES
INVALID_CHARGES
Gaussian 16 #p B3LYP/6-31G* opt
@<TRIPOS>ATOM
      1 C          -2.743623    4.189440    0.900359 C.3       1 <1>        -0.452800 
      2 C          -3.005848    3.421063   -0.403926 C.3       1 <1>        -0.133400 
      3 N          -2.169467    2.241039   -0.640162 N.3       1 <1>        -0.569600 
      4 C          -2.402381    1.107206    0.245037 C.3       1 <1>        -0.098500 
      5 C          -3.669213    0.354745   -0.153280 C.ar      1 <1>         0.160000 
      6 C          -4.571880   -0.094245    0.817312 C.ar      1 <1>        -0.202200 
      7 C          -5.716846   -0.802452    0.458652 C.ar      1 <1>        -0.136600 
      8 C          -5.974744   -1.066658   -0.895291 C.ar      1 <1>         0.128300 
      9 C          -7.151654   -1.792919   -1.275044 C.1       1 <1>         0.238800 
     10 N          -8.105464   -2.383910   -1.582508 N.1       1 <1>        -0.475300 
     11 C          -5.077380   -0.610235   -1.877666 C.ar      1 <1>        -0.138900 
     12 C          -3.939275    0.094480   -1.504146 C.ar      1 <1>        -0.161500 
     13 C          -1.162622    0.199871    0.256740 C.ar      1 <1>         0.344400 
     14 C          -1.231480   -1.174443    0.521933 C.ar      1 <1>        -0.201200 
     15 C          -0.022829   -1.857465    0.569203 C.ar      1 <1>         0.070600 
     16 N           1.164509   -1.272952    0.374042 N.ar      1 <1>        -0.475800 
     17 C           1.121316    0.041923    0.125606 C.ar      1 <1>         0.701400 
     18 N           2.283586    0.748269   -0.094325 N.pl3     1 <1>        -0.765400 
     19 C           3.627720    0.368543   -0.118655 C.ar      1 <1>         0.382100 
     20 C           4.565380    1.387135   -0.384128 C.ar      1 <1>        -0.205700 
     21 C           5.922122    1.112697   -0.428329 C.ar      1 <1>        -0.139900 
     22 C           6.385082   -0.196461   -0.207207 C.ar      1 <1>         0.132100 
     23 C           7.785371   -0.487732   -0.250640 C.1       1 <1>         0.228400 
     24 N           8.924956   -0.722925   -0.285883 N.1       1 <1>        -0.482600 
     25 C           5.450755   -1.211221    0.056693 C.ar      1 <1>        -0.152900 
     26 C           4.088295   -0.942247    0.102400 C.ar      1 <1>        -0.159300 
     27 N           0.009280    0.804868    0.062891 N.ar      1 <1>        -0.577000 
     28 H          -3.400625    5.064368    0.969593 H         1 <1>         0.150200 
     29 H          -1.706818    4.544866    0.944861 H         1 <1>         0.143300 
     30 H          -2.924753    3.572940    1.788465 H         1 <1>         0.146500 
     31 H          -4.055336    3.105502   -0.447437 H         1 <1>         0.148100 
     32 H          -2.854649    4.095162   -1.255873 H         1 <1>         0.146700 
     33 H          -1.180528    2.477885   -0.597603 H         1 <1>         0.319900 
     34 H          -2.529801    1.411740    1.303448 H         1 <1>         0.147700 
     35 H          -4.381922    0.115817    1.867386 H         1 <1>         0.141800 
     36 H          -6.414654   -1.144713    1.216126 H         1 <1>         0.161200 
     37 H          -5.282863   -0.811003   -2.924317 H         1 <1>         0.162100 
     38 H          -3.251232    0.470060   -2.254579 H         1 <1>         0.165400 
     39 H          -2.174200   -1.683672    0.675139 H         1 <1>         0.159400 
     40 H           0.003896   -2.927065    0.769264 H         1 <1>         0.160100 
     41 H           2.098771    1.727363   -0.270973 H         1 <1>         0.343800 
     42 H           4.219269    2.403608   -0.556916 H         1 <1>         0.136600 
     43 H           6.631314    1.907834   -0.633882 H         1 <1>         0.159500 
     44 H           5.799793   -2.224605    0.228215 H         1 <1>         0.160000 
     45 H           3.376315   -1.728735    0.305758 H         1 <1>         0.190100 
@<TRIPOS>BOND
     1   11   37 1    
     2   12   38 1    
     3   12   11 ar   
     4   11    8 ar   
     5    2   32 1    
     6    5   12 ar   
     7   21   43 1    
     8    9   10 3    
     9   20   42 1    
    10    3   33 1    
    11    8    9 1    
    12    3    2 1    
    13    4    3 1    
    14   20   21 ar   
    15   21   22 ar   
    16   19   20 ar   
    17    2   31 1    
    18    2    1 1    
    19   23   24 3    
    20    8    7 ar   
    21   18   41 1    
    22   22   23 1    
    23   25   22 ar   
    24   18   19 1    
    25   19   26 ar   
    26   17   18 1    
    27    4    5 1    
    28    5    6 ar   
    29   27   17 ar   
    30   13   27 ar   
    31   26   25 ar   
    32   25   44 1    
    33   26   45 1    
    34   17   16 ar   
    35    4   13 1    
    36    4   34 1    
    37   13   14 ar   
    38   16   15 ar   
    39    1   29 1    
    40    1   28 1    
    41    1   30 1    
    42   14   15 ar   
    43   14   39 1    
    44    7    6 ar   
    45    7   36 1    
    46   15   40 1    
    47    6   35 1    
@<TRIPOS>SUBSTRUCTURE
     1 ****       10 TEMP              0 ****  ****    0 ROOT 
