#	Name:			MG-2014-EJMC-600-4-1q
#	Creating user name:	Administrator
#	Creation time:		Sun Jul 05 16:39:14 2020

#	Modifying user name:	Administrator
#	Modification time:	Sun Jul 05 16:40:47 2020

@<TRIPOS>MOLECULE
MG-2014-EJMC-600-4-1q
   49    51     1     0     0
SMALL
MULLIKEN_CHARGES
INVALID_CHARGES
Gaussian 16 #p B3LYP/6-31G* opt
@<TRIPOS>ATOM
      1 C          -4.887106    0.024679    4.302119 C.3       1 <1>        -0.459300 
      2 C          -5.503183    0.407318    2.961656 C.3       1 <1>         0.141600 
      3 O          -6.597899    1.273928    3.259428 O.3       1 <1>        -0.622300 
      4 C          -4.520651    1.121630    2.020623 C.3       1 <1>        -0.146000 
      5 N          -3.405360    0.255004    1.628199 N.3       1 <1>        -0.599400 
      6 C          -2.531360    0.841715    0.609428 C.3       1 <1>        -0.070200 
      7 C          -3.199089    0.858062   -0.767879 C.ar      1 <1>         0.156000 
      8 C          -4.088393   -0.153624   -1.152251 C.ar      1 <1>        -0.177400 
      9 C          -4.659313   -0.152054   -2.420866 C.ar      1 <1>        -0.137600 
     10 C          -4.340406    0.868283   -3.332570 C.ar      1 <1>         0.129600 
     11 C          -4.929350    0.876521   -4.639945 C.1       1 <1>         0.238100 
     12 N          -5.408531    0.883297   -5.700141 N.1       1 <1>        -0.475100 
     13 C          -3.445890    1.883144   -2.954557 C.ar      1 <1>        -0.137700 
     14 C          -2.885611    1.872109   -1.681365 C.ar      1 <1>        -0.177100 
     15 C          -1.225741    0.054023    0.519251 C.ar      1 <1>         0.303700 
     16 C          -1.161385   -1.322208    0.774803 C.ar      1 <1>        -0.201300 
     17 C           0.087947   -1.914562    0.632158 C.ar      1 <1>         0.073700 
     18 N           1.185353   -1.242215    0.269533 N.ar      1 <1>        -0.474500 
     19 C           1.009917    0.068020    0.045460 C.ar      1 <1>         0.696000 
     20 N           2.073381    0.857517   -0.333469 N.pl3     1 <1>        -0.765800 
     21 C           3.423390    0.579222   -0.557783 C.ar      1 <1>         0.382200 
     22 C           4.005386   -0.695042   -0.427209 C.ar      1 <1>        -0.159400 
     23 C           5.362625   -0.861907   -0.673786 C.ar      1 <1>        -0.152800 
     24 C           6.172366    0.220893   -1.053359 C.ar      1 <1>         0.132000 
     25 C           7.569012    0.034572   -1.303024 C.1       1 <1>         0.228300 
     26 N           8.705508   -0.115499   -1.505797 N.1       1 <1>        -0.482900 
     27 C           5.588159    1.493280   -1.183981 C.ar      1 <1>        -0.139900 
     28 C           4.236110    1.665975   -0.939522 C.ar      1 <1>        -0.205400 
     29 N          -0.148855    0.751670    0.158562 N.ar      1 <1>        -0.548400 
     30 H          -5.651677   -0.416481    4.948426 H         1 <1>         0.169100 
     31 H          -4.084426   -0.710399    4.176865 H         1 <1>         0.140600 
     32 H          -4.485066    0.910991    4.806687 H         1 <1>         0.155200 
     33 H          -5.857792   -0.505954    2.457092 H         1 <1>         0.122100 
     34 H          -7.071199    1.453760    2.431855 H         1 <1>         0.391100 
     35 H          -5.058920    1.406376    1.107838 H         1 <1>         0.139600 
     36 H          -4.189534    2.059558    2.501541 H         1 <1>         0.134300 
     37 H          -2.840023    0.054650    2.451018 H         1 <1>         0.311800 
     38 H          -2.241467    1.878926    0.847631 H         1 <1>         0.143400 
     39 H          -4.336532   -0.934540   -0.440920 H         1 <1>         0.160400 
     40 H          -5.351208   -0.935270   -2.714075 H         1 <1>         0.160600 
     41 H          -3.201770    2.672985   -3.657604 H         1 <1>         0.161400 
     42 H          -2.191516    2.656289   -1.392501 H         1 <1>         0.148700 
     43 H          -2.038604   -1.886412    1.064945 H         1 <1>         0.162800 
     44 H           0.224214   -2.979257    0.814041 H         1 <1>         0.158800 
     45 H           1.791974    1.820634   -0.466190 H         1 <1>         0.345800 
     46 H           3.389529   -1.533287   -0.135839 H         1 <1>         0.189400 
     47 H           5.805546   -1.847545   -0.571235 H         1 <1>         0.159600 
     48 H           6.200330    2.339963   -1.476916 H         1 <1>         0.159500 
     49 H           3.795381    2.654842   -1.043757 H         1 <1>         0.136900 
@<TRIPOS>BOND
     1   28   49 1    
     2   27   48 1    
     3   14   42 1    
     4    4   36 1    
     5   13   41 1    
     6   20   45 1    
     7    6   38 1    
     8   28   27 ar   
     9   21   28 ar   
    10   27   24 ar   
    11   14   13 ar   
    12    7   14 ar   
    13    3   34 1    
    14    2    3 1    
    15    1   32 1    
    16   13   10 ar   
    17    4   35 1    
    18    2    4 1    
    19    4    5 1    
    20   20   21 1    
    21   19   20 1    
    22    6    7 1    
    23    5    6 1    
    24    6   15 1    
    25   29   19 ar   
    26   15   29 ar   
    27   21   22 ar   
    28    7    8 ar   
    29    2    1 1    
    30    2   33 1    
    31   24   25 1    
    32   24   23 ar   
    33   25   26 3    
    34    1   30 1    
    35    1   31 1    
    36    5   37 1    
    37   19   18 ar   
    38   10   11 1    
    39   10    9 ar   
    40   15   16 ar   
    41   11   12 3    
    42   22   23 ar   
    43   22   46 1    
    44    8    9 ar   
    45    8   39 1    
    46   23   47 1    
    47    9   40 1    
    48   18   17 ar   
    49   16   17 ar   
    50   16   43 1    
    51   17   44 1    
@<TRIPOS>SUBSTRUCTURE
     1 ****       45 TEMP              0 ****  ****    0 ROOT 
