#	Name:			MG-2014-EJMC-600-4-1b
#	Creating user name:	Administrator
#	Creation time:		Sun Jul 05 16:39:13 2020

#	Modifying user name:	Administrator
#	Modification time:	Sun Jul 05 16:40:47 2020

@<TRIPOS>MOLECULE
MG-2014-EJMC-600-4-1b
   40    42     1     0     0
SMALL
MULLIKEN_CHARGES
INVALID_CHARGES
Gaussian 16 #p B3LYP/6-31G* opt
@<TRIPOS>ATOM
      1 N          -5.668864    5.750085   -6.821139 N.1       1 <1>        -0.462900 
      2 C          -5.288874    5.110713   -5.920006 C.1       1 <1>        -0.065900 
      3 C          -4.844183    4.362826   -4.865109 C.1       1 <1>         0.389000 
      4 C          -4.447572    3.696606   -3.925979 C.1       1 <1>         0.025600 
      5 C          -3.986777    2.920304   -2.829276 C.ar      1 <1>         0.001000 
      6 C          -2.994895    1.938616   -3.014685 C.ar      1 <1>        -0.135500 
      7 C          -2.542793    1.186489   -1.937834 C.ar      1 <1>        -0.174800 
      8 C          -3.065474    1.385222   -0.649061 C.ar      1 <1>         0.150200 
      9 C          -2.617075    0.554615    0.496986 C.2       1 <1>         0.212500 
     10 N          -3.441313    0.470048    1.486622 N.2       1 <1>        -0.227400 
     11 O          -2.958070   -0.282050    2.555023 O.2       1 <1>        -0.490000 
     12 C          -1.272755   -0.108571    0.459289 C.ar      1 <1>         0.266800 
     13 C          -1.097317   -1.466755    0.756652 C.ar      1 <1>        -0.166200 
     14 C           0.201029   -1.952456    0.656510 C.ar      1 <1>         0.067800 
     15 N           1.247330   -1.193442    0.314340 N.ar      1 <1>        -0.471700 
     16 C           0.969803    0.093740    0.060754 C.ar      1 <1>         0.694700 
     17 N           1.974056    0.968691   -0.289915 N.pl3     1 <1>        -0.768500 
     18 C           3.352157    0.807665   -0.451538 C.ar      1 <1>         0.381300 
     19 C           4.082086    1.956866   -0.817099 C.ar      1 <1>        -0.205500 
     20 C           5.453399    1.900402   -1.002068 C.ar      1 <1>        -0.140000 
     21 C           6.140208    0.686005   -0.826255 C.ar      1 <1>         0.132200 
     22 C           7.557139    0.619375   -1.015505 C.1       1 <1>         0.228600 
     23 N           8.709742    0.566076   -1.169517 N.1       1 <1>        -0.482300 
     24 C           5.412894   -0.458660   -0.462183 C.ar      1 <1>        -0.152700 
     25 C           4.036872   -0.408539   -0.275153 C.ar      1 <1>        -0.159900 
     26 N          -0.249430    0.670978    0.102293 N.ar      1 <1>        -0.532800 
     27 C          -4.056290    2.367859   -0.468192 C.ar      1 <1>        -0.166600 
     28 C          -4.512718    3.124262   -1.536572 C.ar      1 <1>        -0.130400 
     29 H          -2.587175    1.771846   -4.006454 H         1 <1>         0.158600 
     30 H          -1.778931    0.435470   -2.103746 H         1 <1>         0.149900 
     31 H          -3.689732   -0.227985    3.190827 H         1 <1>         0.429400 
     32 H          -1.923905   -2.096816    1.055861 H         1 <1>         0.163700 
     33 H           0.420938   -2.998932    0.859542 H         1 <1>         0.161100 
     34 H           1.615361    1.902472   -0.445967 H         1 <1>         0.349700 
     35 H           3.561714    2.901786   -0.955598 H         1 <1>         0.139400 
     36 H           6.001296    2.793881   -1.283321 H         1 <1>         0.160400 
     37 H           5.935386   -1.400005   -0.324393 H         1 <1>         0.159800 
     38 H           3.485443   -1.294093    0.005205 H         1 <1>         0.188900 
     39 H          -4.459659    2.531377    0.524618 H         1 <1>         0.163300 
     40 H          -5.272590    3.883947   -1.383960 H         1 <1>         0.158900 
@<TRIPOS>BOND
     1   14   33 1    
     2    6   29 1    
     3   13   32 1    
     4   14   13 ar   
     5   15   14 ar   
     6    7   30 1    
     7   24   37 1    
     8   25   38 1    
     9   12   13 ar   
    10   16   15 ar   
    11    7    6 ar   
    12    6    5 ar   
    13    8    7 ar   
    14   25   24 ar   
    15   24   21 ar   
    16   18   25 ar   
    17    2    1 3    
    18    3    2 1    
    19    4    3 3    
    20   12    9 1    
    21   26   12 ar   
    22    5    4 1    
    23   16   26 ar   
    24   17   16 1    
    25    5   28 ar   
    26   22   23 3    
    27   21   22 1    
    28   21   20 ar   
    29    9    8 1    
    30    8   27 ar   
    31    9   10 2    
    32   18   17 1    
    33   18   19 ar   
    34   17   34 1    
    35   10   11 1    
    36   11   31 1    
    37   28   27 ar   
    38   28   40 1    
    39   20   19 ar   
    40   20   36 1    
    41   27   39 1    
    42   19   35 1    
@<TRIPOS>SUBSTRUCTURE
     1 ****       23 TEMP              0 ****  ****    0 ROOT 
