#	Name:			MG-2014-EJMC-600-2XING
#	Creating user name:	Administrator
#	Creation time:		Sun Jul 05 16:39:13 2020

#	Modifying user name:	Administrator
#	Modification time:	Sun Jul 05 16:40:47 2020

@<TRIPOS>MOLECULE
MG-2014-EJMC-600-2XING
   48    51     1     0     0
SMALL
MULLIKEN_CHARGES
INVALID_CHARGES
Gaussian 16 #p B3LYP/6-31G* opt
@<TRIPOS>ATOM
      1 N          -9.971263   -2.199347    4.557693 N.1       1 <1>        -0.463800 
      2 C          -9.046310   -1.803670    3.963421 C.1       1 <1>        -0.065900 
      3 C          -7.963684   -1.341207    3.267359 C.1       1 <1>         0.388000 
      4 C          -6.999870   -0.929873    2.647089 C.1       1 <1>         0.024600 
      5 C          -5.873731   -0.451418    1.923692 C.ar      1 <1>        -0.004700 
      6 C          -5.732229   -0.738470    0.553522 C.ar      1 <1>        -0.127500 
      7 C          -4.625694   -0.264130   -0.146361 C.ar      1 <1>        -0.200200 
      8 C          -3.641588    0.497829    0.492453 C.ar      1 <1>         0.188800 
      9 C          -2.415678    0.993145   -0.268218 C.3       1 <1>        -0.106800 
     10 N          -2.152539    2.404340   -0.005189 N.3       1 <1>        -0.582700 
     11 C          -2.921095    3.316779   -0.813706 C.3       1 <1>         0.025400 
     12 C          -4.231492    3.845228   -0.281552 C.3       1 <1>        -0.304300 
     13 C          -3.020326    4.743980   -0.344863 C.3       1 <1>        -0.326600 
     14 C          -1.166505    0.155765    0.049043 C.ar      1 <1>         0.343900 
     15 C          -1.233179   -1.216092    0.329191 C.ar      1 <1>        -0.199300 
     16 C          -0.022466   -1.866662    0.528084 C.ar      1 <1>         0.070600 
     17 N           1.164781   -1.252362    0.471034 N.ar      1 <1>        -0.475700 
     18 C           1.119766    0.057947    0.201599 C.ar      1 <1>         0.701900 
     19 N           2.280668    0.794729    0.122410 N.pl3     1 <1>        -0.765300 
     20 C           3.626834    0.452419    0.274334 C.ar      1 <1>         0.381700 
     21 C           4.562849    1.494949    0.120049 C.ar      1 <1>        -0.205700 
     22 C           5.921027    1.257822    0.250778 C.ar      1 <1>        -0.139800 
     23 C           6.386788   -0.036703    0.541381 C.ar      1 <1>         0.132300 
     24 C           7.788663   -0.289816    0.677475 C.1       1 <1>         0.228700 
     25 N           8.929404   -0.494156    0.787486 N.1       1 <1>        -0.482100 
     26 C           5.453951   -1.075169    0.695292 C.ar      1 <1>        -0.152800 
     27 C           4.090067   -0.843601    0.565361 C.ar      1 <1>        -0.159200 
     28 N           0.004368    0.787724   -0.017749 N.ar      1 <1>        -0.581400 
     29 C          -3.788352    0.788118    1.856722 C.ar      1 <1>        -0.167500 
     30 C          -4.885300    0.322270    2.568767 C.ar      1 <1>        -0.130400 
     31 H          -6.493792   -1.324004    0.048349 H         1 <1>         0.157200 
     32 H          -4.531488   -0.483389   -1.207377 H         1 <1>         0.141500 
     33 H          -2.609104    0.815920   -1.346015 H         1 <1>         0.147500 
     34 H          -1.154873    2.565807   -0.131048 H         1 <1>         0.327300 
     35 H          -2.873747    3.163686   -1.898414 H         1 <1>         0.125600 
     36 H          -4.544632    3.496441    0.696731 H         1 <1>         0.163800 
     37 H          -5.040521    4.012478   -0.987154 H         1 <1>         0.150700 
     38 H          -2.530139    4.986312    0.593524 H         1 <1>         0.160000 
     39 H          -2.991089    5.533220   -1.090646 H         1 <1>         0.152800 
     40 H          -2.176282   -1.743588    0.394406 H         1 <1>         0.158800 
     41 H           0.006705   -2.932324    0.748000 H         1 <1>         0.160600 
     42 H           2.094008    1.767289   -0.085553 H         1 <1>         0.344800 
     43 H           4.214467    2.500410   -0.104705 H         1 <1>         0.137400 
     44 H           6.629260    2.070871    0.129114 H         1 <1>         0.160000 
     45 H           5.805272   -2.077330    0.919989 H         1 <1>         0.160300 
     46 H           3.379170   -1.648014    0.685465 H         1 <1>         0.190100 
     47 H          -3.037521    1.401186    2.345247 H         1 <1>         0.159500 
     48 H          -4.993265    0.549512    3.624649 H         1 <1>         0.157800 
@<TRIPOS>BOND
     1   30   48 1    
     2   13   38 1    
     3   29   47 1    
     4    2    1 3    
     5   29   30 ar   
     6   30    5 ar   
     7   22   44 1    
     8   12   36 1    
     9    3    2 1    
    10    8   29 ar   
    11   13   39 1    
    12   12   13 1    
    13   11   13 1    
    14   21   43 1    
    15   24   25 3    
    16   21   22 ar   
    17   22   23 ar   
    18    4    3 3    
    19   23   24 1    
    20   20   21 ar   
    21   26   23 ar   
    22    5    4 1    
    23   11   12 1    
    24   12   37 1    
    25   19   42 1    
    26   10   34 1    
    27   19   20 1    
    28   20   27 ar   
    29   10   11 1    
    30    9   10 1    
    31    5    6 ar   
    32   27   26 ar   
    33   26   45 1    
    34   18   19 1    
    35   27   46 1    
    36   11   35 1    
    37   28   18 ar   
    38   14   28 ar   
    39   18   17 ar   
    40    9    8 1    
    41    8    7 ar   
    42   14    9 1    
    43   14   15 ar   
    44   17   16 ar   
    45    9   33 1    
    46   16   15 ar   
    47   16   41 1    
    48   15   40 1    
    49    6    7 ar   
    50    6   31 1    
    51    7   32 1    
@<TRIPOS>SUBSTRUCTURE
     1 ****       25 TEMP              0 ****  ****    0 ROOT 
