#	Name:			MG-2014-EJMC-600-4-1r
#	Creating user name:	Administrator
#	Creation time:		Sun Jul 05 16:39:14 2020

#	Modifying user name:	Administrator
#	Modification time:	Sun Jul 05 16:40:47 2020

@<TRIPOS>MOLECULE
MG-2014-EJMC-600-4-1r
   48    50     1     0     0
SMALL
MULLIKEN_CHARGES
INVALID_CHARGES
Gaussian 16 #p B3LYP/6-31G* opt
@<TRIPOS>ATOM
      1 C          -5.772419   -2.774768   -0.673939 C.3       1 <1>        -0.440100 
      2 C          -6.086341   -1.415271   -0.066688 C.3       1 <1>         0.133700 
      3 O          -7.378345   -1.041333   -0.542101 O.3       1 <1>        -0.622700 
      4 C          -5.059921   -0.334531   -0.441282 C.3       1 <1>        -0.136100 
      5 N          -3.742420   -0.623334    0.127253 N.3       1 <1>        -0.564300 
      6 C          -2.692464    0.332065   -0.242102 C.3       1 <1>        -0.122200 
      7 C          -1.306517   -0.236346    0.065125 C.ar      1 <1>         0.312700 
      8 C          -1.103102   -1.580568    0.400708 C.ar      1 <1>        -0.209400 
      9 C           0.214118   -1.966502    0.622946 C.ar      1 <1>         0.071600 
     10 N           1.255409   -1.133450    0.521934 N.ar      1 <1>        -0.475800 
     11 C           0.947564    0.126344    0.180672 C.ar      1 <1>         0.689700 
     12 N           1.942494    1.071373    0.033854 N.pl3     1 <1>        -0.767100 
     13 C           3.329013    1.010270    0.169310 C.ar      1 <1>         0.383100 
     14 C           4.040873    2.204623   -0.066924 C.ar      1 <1>        -0.205700 
     15 C           5.420458    2.246237    0.043938 C.ar      1 <1>        -0.140600 
     16 C           6.136419    1.088340    0.396608 C.ar      1 <1>         0.130700 
     17 C           7.561815    1.123828    0.514287 C.1       1 <1>         0.226800 
     18 N           8.721759    1.154408    0.610368 N.1       1 <1>        -0.485700 
     19 C           5.427908   -0.101578    0.631225 C.ar      1 <1>        -0.153300 
     20 C           4.043820   -0.149995    0.521765 C.ar      1 <1>        -0.160600 
     21 N          -0.286473    0.615878   -0.046727 N.ar      1 <1>        -0.540500 
     22 C          -2.880862    1.723226    0.371437 C.ar      1 <1>         0.212500 
     23 C          -2.782759    1.874099    1.763839 C.ar      1 <1>        -0.186900 
     24 C          -3.003498    3.095570    2.392096 C.ar      1 <1>        -0.127300 
     25 C          -3.334679    4.215755    1.626676 C.ar      1 <1>        -0.127400 
     26 C          -3.437156    4.101839    0.243112 C.ar      1 <1>        -0.126300 
     27 C          -3.210957    2.865661   -0.367906 C.ar      1 <1>        -0.151200 
     28 CL         -3.347182    2.804674   -2.129208 Cl        1 <1>        -0.017700 
     29 H          -4.778724   -3.111024   -0.365593 H         1 <1>         0.154000 
     30 H          -6.517051   -3.512363   -0.359281 H         1 <1>         0.155400 
     31 H          -5.796053   -2.708670   -1.767461 H         1 <1>         0.153800 
     32 H          -6.104234   -1.510927    1.035345 H         1 <1>         0.102600 
     33 H          -7.607246   -0.185884   -0.145208 H         1 <1>         0.387800 
     34 H          -5.455041    0.649857   -0.124893 H         1 <1>         0.113700 
     35 H          -4.967510   -0.300370   -1.533100 H         1 <1>         0.161000 
     36 H          -3.819163   -0.659764    1.144284 H         1 <1>         0.296700 
     37 H          -2.736902    0.432732   -1.331689 H         1 <1>         0.192100 
     38 H          -1.931048   -2.273034    0.466457 H         1 <1>         0.164400 
     39 H           0.454955   -2.992900    0.895213 H         1 <1>         0.154400 
     40 H           1.559592    1.972390   -0.223975 H         1 <1>         0.348300 
     41 H           3.498023    3.106375   -0.340760 H         1 <1>         0.137200 
     42 H           5.952896    3.173491   -0.141303 H         1 <1>         0.157300 
     43 H           5.972584   -1.000288    0.903426 H         1 <1>         0.157400 
     44 H           3.506169   -1.069089    0.703971 H         1 <1>         0.188500 
     45 H          -2.509514    1.008175    2.363842 H         1 <1>         0.133500 
     46 H          -2.912749    3.175159    3.471498 H         1 <1>         0.140800 
     47 H          -3.509984    5.176804    2.101505 H         1 <1>         0.143800 
     48 H          -3.690217    4.960857   -0.369098 H         1 <1>         0.157700 
@<TRIPOS>BOND
     1   27   28 1    
     2    1   31 1    
     3    4   35 1    
     4    6   37 1    
     5   14   41 1    
     6   15   42 1    
     7   12   40 1    
     8   14   15 ar   
     9   13   14 ar   
    10   15   16 ar   
    11    1   29 1    
    12    1   30 1    
    13    2    1 1    
    14   26   48 1    
    15   27   26 ar   
    16   22   27 ar   
    17    4   34 1    
    18    4    2 1    
    19    5    4 1    
    20   12   13 1    
    21   11   12 1    
    22    3   33 1    
    23    2    3 1    
    24    7    6 1    
    25    6    5 1    
    26    6   22 1    
    27   13   20 ar   
    28   21   11 ar   
    29   21    7 ar   
    30   16   17 1    
    31   16   19 ar   
    32   17   18 3    
    33   11   10 ar   
    34    7    8 ar   
    35   20   19 ar   
    36   20   44 1    
    37    2   32 1    
    38   19   43 1    
    39   26   25 ar   
    40    5   36 1    
    41   10    9 ar   
    42    8   38 1    
    43    8    9 ar   
    44   22   23 ar   
    45    9   39 1    
    46   25   47 1    
    47   25   24 ar   
    48   23   45 1    
    49   23   24 ar   
    50   24   46 1    
@<TRIPOS>SUBSTRUCTURE
     1 ****       40 TEMP              0 ****  ****    0 ROOT 
