#	Name:			MG-2014-EJMC-600-4-1j
#	Creating user name:	Administrator
#	Creation time:		Sun Jul 05 16:39:14 2020

#	Modifying user name:	Administrator
#	Modification time:	Sun Jul 05 16:40:47 2020

@<TRIPOS>MOLECULE
MG-2014-EJMC-600-4-1j
   44    46     1     0     0
SMALL
MULLIKEN_CHARGES
INVALID_CHARGES
Gaussian 16 #p B3LYP/6-31G* opt
@<TRIPOS>ATOM
      1 C          -6.001453    0.611074    0.286655 C.3       1 <1>        -0.454400 
      2 C          -5.025797   -0.246075    1.107491 C.3       1 <1>        -0.125500 
      3 N          -3.736300   -0.575883    0.496219 N.3       1 <1>        -0.560500 
      4 C          -2.703324    0.453575    0.460140 C.3       1 <1>        -0.132900 
      5 C          -1.305950   -0.180608    0.394372 C.ar      1 <1>         0.330500 
      6 C          -1.085578   -1.525681    0.716572 C.ar      1 <1>        -0.192400 
      7 C           0.232920   -1.959290    0.675277 C.ar      1 <1>         0.070200 
      8 N           1.263036   -1.166717    0.352834 N.ar      1 <1>        -0.477600 
      9 C           0.938256    0.101214    0.070139 C.ar      1 <1>         0.691100 
     10 N           1.918035    1.012688   -0.273421 N.pl3     1 <1>        -0.767200 
     11 C           3.300869    0.904434   -0.405228 C.ar      1 <1>         0.384200 
     12 C           4.031389   -0.278070   -0.180792 C.ar      1 <1>        -0.160600 
     13 C           5.411427   -0.277776   -0.338552 C.ar      1 <1>        -0.153600 
     14 C           6.101620    0.884838   -0.720128 C.ar      1 <1>         0.130100 
     15 C           7.523291    0.870818   -0.878432 C.1       1 <1>         0.226000 
     16 N           8.680484    0.861436   -1.007470 N.1       1 <1>        -0.487100 
     17 C           5.370139    2.065096   -0.944310 C.ar      1 <1>        -0.140800 
     18 C           3.994381    2.071468   -0.788790 C.ar      1 <1>        -0.205900 
     19 N          -0.299552    0.634147    0.078661 N.ar      1 <1>        -0.550500 
     20 C          -2.867676    1.582696   -0.566726 C.ar      1 <1>         0.233500 
     21 C          -3.015401    2.901805   -0.115956 C.ar      1 <1>        -0.200700 
     22 C          -3.197730    3.969726   -0.993244 C.ar      1 <1>        -0.122600 
     23 C          -3.233554    3.736155   -2.367287 C.ar      1 <1>        -0.128800 
     24 C          -3.081077    2.437349   -2.850936 C.ar      1 <1>        -0.125300 
     25 C          -2.899206    1.386155   -1.954159 C.ar      1 <1>        -0.136800 
     26 CL         -2.696400   -0.232260   -2.642102 Cl        1 <1>        -0.029900 
     27 H          -6.211420    0.142196   -0.682480 H         1 <1>         0.145400 
     28 H          -5.609970    1.614282    0.096339 H         1 <1>         0.158800 
     29 H          -6.955009    0.712566    0.819582 H         1 <1>         0.142400 
     30 H          -4.816946    0.240842    2.069042 H         1 <1>         0.139400 
     31 H          -5.513101   -1.199678    1.350195 H         1 <1>         0.145600 
     32 H          -3.862055   -0.996268   -0.420862 H         1 <1>         0.317100 
     33 H          -2.740520    0.942222    1.444281 H         1 <1>         0.166800 
     34 H          -1.908193   -2.175517    0.981533 H         1 <1>         0.161800 
     35 H           0.487779   -2.991641    0.909640 H         1 <1>         0.152000 
     36 H           1.521254    1.922895   -0.469878 H         1 <1>         0.346000 
     37 H           3.507238   -1.176292    0.111862 H         1 <1>         0.188900 
     38 H           5.967827   -1.193361   -0.163853 H         1 <1>         0.156600 
     39 H           5.888013    2.971745   -1.240047 H         1 <1>         0.155800 
     40 H           3.439666    2.990188   -0.965180 H         1 <1>         0.134900 
     41 H          -2.984047    3.088939    0.954903 H         1 <1>         0.136700 
     42 H          -3.310143    4.977524   -0.603926 H         1 <1>         0.139300 
     43 H          -3.377335    4.556140   -3.065005 H         1 <1>         0.142700 
     44 H          -3.099971    2.233640   -3.916363 H         1 <1>         0.157200 
@<TRIPOS>BOND
     1   21   41 1    
     2   22   42 1    
     3    2   30 1    
     4    4   33 1    
     5   21   22 ar   
     6   20   21 ar   
     7   22   23 ar   
     8    1   29 1    
     9    1   28 1    
    10    2   31 1    
    11    2    1 1    
    12    3    2 1    
    13   18   40 1    
    14    4   20 1    
    15    5    4 1    
    16    4    3 1    
    17   10   36 1    
    18    1   27 1    
    19   17   39 1    
    20   18   17 ar   
    21   11   18 ar   
    22   19    5 ar   
    23    9   19 ar   
    24   10   11 1    
    25   10    9 1    
    26   17   14 ar   
    27   20   25 ar   
    28    5    6 ar   
    29   11   12 ar   
    30    9    8 ar   
    31    3   32 1    
    32   14   15 1    
    33   14   13 ar   
    34    6   34 1    
    35    6    7 ar   
    36   15   16 3    
    37   12   13 ar   
    38   12   37 1    
    39    8    7 ar   
    40   23   43 1    
    41   23   24 ar   
    42   13   38 1    
    43    7   35 1    
    44   25   24 ar   
    45   25   26 1    
    46   24   44 1    
@<TRIPOS>SUBSTRUCTURE
     1 ****       36 TEMP              0 ****  ****    0 ROOT 
