#	Name:			MG-2014-EJMC-600-4-1g
#	Creating user name:	Administrator
#	Creation time:		Sun Jul 05 16:39:13 2020

#	Modifying user name:	Administrator
#	Modification time:	Sun Jul 05 16:40:47 2020

@<TRIPOS>MOLECULE
MG-2014-EJMC-600-4-1g
   41    43     1     0     0
SMALL
MULLIKEN_CHARGES
INVALID_CHARGES
Gaussian 16 #p B3LYP/6-31G* opt
@<TRIPOS>ATOM
      1 C          -3.448205    0.085945    2.805979 C.3       1 <1>        -0.311900 
      2 N          -3.583539   -0.054345    1.358281 N.3       1 <1>        -0.552600 
      3 C          -2.587767    0.707097    0.603300 C.3       1 <1>        -0.091000 
      4 C          -1.254828   -0.042879    0.497647 C.ar      1 <1>         0.332600 
      5 C          -1.122844   -1.407363    0.775085 C.ar      1 <1>        -0.188800 
      6 C           0.156016   -1.937190    0.655339 C.ar      1 <1>         0.067900 
      7 N           1.223268   -1.215620    0.292347 N.ar      1 <1>        -0.477700 
      8 C           0.981434    0.079285    0.047437 C.ar      1 <1>         0.688700 
      9 N           2.008870    0.918617   -0.339349 N.pl3     1 <1>        -0.766100 
     10 C           3.368797    0.705730   -0.556497 C.ar      1 <1>         0.384100 
     11 C           4.128810    1.823858   -0.959065 C.ar      1 <1>        -0.205900 
     12 C           5.488043    1.713781   -1.198464 C.ar      1 <1>        -0.140700 
     13 C           6.135502    0.475091   -1.042292 C.ar      1 <1>         0.130100 
     14 C           7.539684    0.353979   -1.287547 C.1       1 <1>         0.226100 
     15 N           8.682626    0.257353   -1.487301 N.1       1 <1>        -0.486900 
     16 C           5.379092   -0.638853   -0.641652 C.ar      1 <1>        -0.153500 
     17 C           4.015146   -0.535195   -0.399893 C.ar      1 <1>        -0.160600 
     18 N          -0.207785    0.704880    0.142947 N.ar      1 <1>        -0.549100 
     19 C          -3.106197    1.145194   -0.766905 C.ar      1 <1>         0.152900 
     20 C          -3.091260    2.517747   -1.062756 C.ar      1 <1>        -0.180700 
     21 C          -3.544815    3.022721   -2.278592 C.ar      1 <1>        -0.126100 
     22 C          -4.035217    2.147943   -3.246795 C.ar      1 <1>        -0.123000 
     23 C          -4.063130    0.779856   -2.987936 C.ar      1 <1>        -0.126300 
     24 C          -3.602183    0.287750   -1.764608 C.ar      1 <1>        -0.127900 
     25 CL         -3.671496   -1.458777   -1.548564 Cl        1 <1>        -0.005500 
     26 H          -3.458665    1.133843    3.158573 H         1 <1>         0.129200 
     27 H          -2.505720   -0.364987    3.134847 H         1 <1>         0.159700 
     28 H          -4.263929   -0.453595    3.296730 H         1 <1>         0.158800 
     29 H          -4.513593    0.234902    1.069379 H         1 <1>         0.311500 
     30 H          -2.331321    1.644489    1.127243 H         1 <1>         0.140500 
     31 H          -1.981400   -2.001786    1.056959 H         1 <1>         0.174500 
     32 H           0.344816   -2.990408    0.856597 H         1 <1>         0.153300 
     33 H           1.676045    1.861925   -0.492947 H         1 <1>         0.343900 
     34 H           3.639402    2.787208   -1.083530 H         1 <1>         0.134200 
     35 H           6.057797    2.584174   -1.507696 H         1 <1>         0.155900 
     36 H           5.870297   -1.599061   -0.518959 H         1 <1>         0.156800 
     37 H           3.439929   -1.396524   -0.092469 H         1 <1>         0.189100 
     38 H          -2.707040    3.201094   -0.310649 H         1 <1>         0.141700 
     39 H          -3.515879    4.092195   -2.465316 H         1 <1>         0.140200 
     40 H          -4.394995    2.522131   -4.201004 H         1 <1>         0.144000 
     41 H          -4.438200    0.082293   -3.729196 H         1 <1>         0.158600 
@<TRIPOS>BOND
     1   23   41 1    
     2   24   25 1    
     3    6   32 1    
     4   24   23 ar   
     5   23   22 ar   
     6   16   36 1    
     7   17   37 1    
     8    6    7 ar   
     9    5    6 ar   
    10   19   24 ar   
    11   22   40 1    
    12   17   16 ar   
    13   16   13 ar   
    14    5   31 1    
    15    8    7 ar   
    16   14   15 3    
    17   10   17 ar   
    18   21   22 ar   
    19    4    5 ar   
    20   13   14 1    
    21   12   13 ar   
    22    8    9 1    
    23   18    8 ar   
    24    9   10 1    
    25   10   11 ar   
    26    4   18 ar   
    27    3    4 1    
    28    3   19 1    
    29   19   20 ar   
    30    9   33 1    
    31   11   12 ar   
    32   12   35 1    
    33   20   21 ar   
    34   21   39 1    
    35   11   34 1    
    36    2   29 1    
    37    2    3 1    
    38    2    1 1    
    39    3   30 1    
    40   20   38 1    
    41    1   27 1    
    42    1   28 1    
    43    1   26 1    
@<TRIPOS>SUBSTRUCTURE
     1 ****        2 TEMP              0 ****  ****    0 ROOT 
