#	Name:			MG-2014-EJMC-600-4-1l
#	Creating user name:	Administrator
#	Creation time:		Sun Jul 05 16:39:14 2020

#	Modifying user name:	Administrator
#	Modification time:	Sun Jul 05 16:40:47 2020

@<TRIPOS>MOLECULE
MG-2014-EJMC-600-4-1l
   50    52     1     0     0
SMALL
MULLIKEN_CHARGES
INVALID_CHARGES
Gaussian 16 #p B3LYP/6-31G* opt
@<TRIPOS>ATOM
      1 C          -4.647792   -2.895811    2.254660 C.3       1 <1>        -0.439100 
      2 C          -5.003296   -1.420306    2.460107 C.3       1 <1>        -0.265600 
      3 C          -3.935931   -0.436786    1.965236 C.3       1 <1>        -0.132900 
      4 N          -3.742436   -0.560696    0.515417 N.3       1 <1>        -0.552100 
      5 C          -2.718169    0.292681   -0.111523 C.3       1 <1>        -0.135800 
      6 C          -2.890376    1.788411    0.153255 C.ar      1 <1>         0.215100 
      7 C          -2.431630    2.408110    1.326367 C.ar      1 <1>        -0.166600 
      8 C          -2.689903    3.750140    1.576243 C.ar      1 <1>        -0.136900 
      9 C          -3.418939    4.519339    0.646952 C.ar      1 <1>        -0.006400 
     10 C          -3.682138    5.893380    0.896706 C.1       1 <1>         0.025200 
     11 C          -3.909090    7.070716    1.110247 C.1       1 <1>         0.386400 
     12 C          -4.163888    8.392674    1.350359 C.1       1 <1>        -0.066500 
     13 N          -4.381787    9.522101    1.555326 N.1       1 <1>        -0.463900 
     14 C          -3.877451    3.906593   -0.534425 C.ar      1 <1>        -0.125200 
     15 C          -3.612604    2.561124   -0.766177 C.ar      1 <1>        -0.204500 
     16 C          -1.310303   -0.241057    0.161997 C.ar      1 <1>         0.318500 
     17 C          -1.086023   -1.585656    0.488262 C.ar      1 <1>        -0.203300 
     18 C           0.240709   -1.971003    0.633624 C.ar      1 <1>         0.069000 
     19 N           1.274824   -1.136147    0.475309 N.ar      1 <1>        -0.475000 
     20 C           0.948351    0.123075    0.155293 C.ar      1 <1>         0.688300 
     21 N           1.930671    1.070805   -0.040832 N.pl3     1 <1>        -0.765800 
     22 C           3.323815    1.011503    0.018442 C.ar      1 <1>         0.382000 
     23 C           4.019163    2.207733   -0.252809 C.ar      1 <1>        -0.206000 
     24 C           5.402879    2.250966   -0.218645 C.ar      1 <1>        -0.140300 
     25 C           6.138468    1.092759    0.089440 C.ar      1 <1>         0.131400 
     26 C           7.568427    1.129211    0.126550 C.1       1 <1>         0.227700 
     27 N           8.731792    1.159738    0.156485 N.1       1 <1>        -0.483900 
     28 C           5.445907   -0.098832    0.359682 C.ar      1 <1>        -0.153100 
     29 C           4.057784   -0.148786    0.327199 C.ar      1 <1>        -0.160400 
     30 N          -0.299519    0.610913   -0.007537 N.ar      1 <1>        -0.550000 
     31 H          -4.499495   -3.122385    1.194297 H         1 <1>         0.159000 
     32 H          -5.442017   -3.547973    2.634571 H         1 <1>         0.146600 
     33 H          -3.723386   -3.154344    2.786193 H         1 <1>         0.140800 
     34 H          -5.956058   -1.194539    1.958013 H         1 <1>         0.132300 
     35 H          -5.173146   -1.222534    3.526409 H         1 <1>         0.142900 
     36 H          -2.978115   -0.660517    2.453072 H         1 <1>         0.141300 
     37 H          -4.217082    0.584143    2.272254 H         1 <1>         0.134700 
     38 H          -4.631693   -0.390664    0.049106 H         1 <1>         0.302000 
     39 H          -2.861424    0.151369   -1.192573 H         1 <1>         0.172500 
     40 H          -1.849935    1.839841    2.044911 H         1 <1>         0.145600 
     41 H          -2.328798    4.217509    2.486913 H         1 <1>         0.156500 
     42 H          -4.431928    4.492216   -1.260706 H         1 <1>         0.156500 
     43 H          -3.970216    2.103027   -1.685880 H         1 <1>         0.136500 
     44 H          -1.909535   -2.276534    0.608457 H         1 <1>         0.174600 
     45 H           0.497948   -2.997574    0.889228 H         1 <1>         0.156200 
     46 H           1.533855    1.971851   -0.276643 H         1 <1>         0.347500 
     47 H           3.461002    3.109876   -0.492490 H         1 <1>         0.137900 
     48 H           5.923057    3.179604   -0.429896 H         1 <1>         0.159100 
     49 H           6.005987   -0.997442    0.598296 H         1 <1>         0.158500 
     50 H           3.532498   -1.069364    0.536292 H         1 <1>         0.188800 
@<TRIPOS>BOND
     1   15   43 1    
     2   14   42 1    
     3    5   39 1    
     4   15   14 ar   
     5    6   15 ar   
     6   14    9 ar   
     7    4   38 1    
     8    5    6 1    
     9    5   16 1    
    10    4    5 1    
    11    6    7 ar   
    12   21   46 1    
    13   16   30 ar   
    14   30   20 ar   
    15   16   17 ar   
    16   23   47 1    
    17    3    4 1    
    18   20   21 1    
    19   21   22 1    
    20   20   19 ar   
    21   22   23 ar   
    22   23   24 ar   
    23   17   44 1    
    24   17   18 ar   
    25   24   48 1    
    26    9   10 1    
    27    8    9 ar   
    28   22   29 ar   
    29   24   25 ar   
    30    1   31 1    
    31   18   19 ar   
    32   18   45 1    
    33   10   11 3    
    34   29   50 1    
    35   29   28 ar   
    36   28   25 ar   
    37   25   26 1    
    38   11   12 1    
    39   28   49 1    
    40   26   27 3    
    41    7    8 ar   
    42    7   40 1    
    43   12   13 3    
    44    2   34 1    
    45    8   41 1    
    46    3   37 1    
    47    2    3 1    
    48    3   36 1    
    49    1    2 1    
    50    1   32 1    
    51    1   33 1    
    52    2   35 1    
@<TRIPOS>SUBSTRUCTURE
     1 ****       31 TEMP              0 ****  ****    0 ROOT 
