#	Name:			MG-2014-EJMC-600-4-1n
#	Creating user name:	Administrator
#	Creation time:		Sun Jul 05 16:39:14 2020

#	Modifying user name:	Administrator
#	Modification time:	Sun Jul 05 16:40:47 2020

@<TRIPOS>MOLECULE
MG-2014-EJMC-600-4-1n
   48    50     1     0     0
SMALL
MULLIKEN_CHARGES
INVALID_CHARGES
Gaussian 16 #p B3LYP/6-31G* opt
@<TRIPOS>ATOM
      1 C          -5.062923   -0.912544   -1.926411 C.3       1 <1>        -0.437800 
      2 C          -5.067244   -0.419838   -0.474694 C.3       1 <1>         0.064000 
      3 C          -6.103933   -1.181112    0.355682 C.3       1 <1>        -0.466500 
      4 N          -3.740600   -0.625005    0.141128 N.3       1 <1>        -0.565600 
      5 C          -2.692433    0.331566   -0.236566 C.3       1 <1>        -0.126500 
      6 C          -2.893369    1.723457    0.363278 C.ar      1 <1>         0.228700 
      7 C          -2.732106    1.936992    1.741100 C.ar      1 <1>        -0.191900 
      8 C          -2.984453    3.179161    2.308919 C.ar      1 <1>        -0.138100 
      9 C          -3.411359    4.245918    1.497556 C.ar      1 <1>         0.125700 
     10 C          -3.674849    5.530838    2.076576 C.1       1 <1>         0.237900 
     11 N          -3.889502    6.573145    2.546857 N.1       1 <1>        -0.475400 
     12 C          -3.574493    4.045467    0.118833 C.ar      1 <1>        -0.134600 
     13 C          -3.315103    2.793387   -0.434021 C.ar      1 <1>        -0.205300 
     14 C          -1.304434   -0.236232    0.067986 C.ar      1 <1>         0.309200 
     15 C          -1.102696   -1.579124    0.406857 C.ar      1 <1>        -0.204400 
     16 C           0.215432   -1.966514    0.623101 C.ar      1 <1>         0.071400 
     17 N           1.256647   -1.134420    0.517749 N.ar      1 <1>        -0.474500 
     18 C           0.950055    0.126548    0.178989 C.ar      1 <1>         0.689500 
     19 N           1.945658    1.070301    0.035243 N.pl3     1 <1>        -0.766600 
     20 C           3.333239    1.005948    0.167301 C.ar      1 <1>         0.382400 
     21 C           4.047473   -0.159345    0.502744 C.ar      1 <1>        -0.160400 
     22 C           5.432130   -0.114279    0.606972 C.ar      1 <1>        -0.153100 
     23 C           6.141167    1.077357    0.383685 C.ar      1 <1>         0.131200 
     24 C           7.567362    1.108767    0.494195 C.1       1 <1>         0.227400 
     25 N           8.727804    1.135181    0.583571 N.1       1 <1>        -0.484500 
     26 C           5.425517    2.240817    0.049159 C.ar      1 <1>        -0.140400 
     27 C           4.045288    2.202387   -0.056353 C.ar      1 <1>        -0.205800 
     28 N          -0.284695    0.616438   -0.048790 N.ar      1 <1>        -0.544500 
     29 H          -4.326955   -0.384051   -2.542862 H         1 <1>         0.141900 
     30 H          -6.045443   -0.753224   -2.384824 H         1 <1>         0.146700 
     31 H          -4.827363   -1.981742   -1.963659 H         1 <1>         0.155400 
     32 H          -5.346370    0.648683   -0.469841 H         1 <1>         0.121800 
     33 H          -7.101642   -1.078688   -0.082963 H         1 <1>         0.155400 
     34 H          -6.151327   -0.798417    1.382957 H         1 <1>         0.143500 
     35 H          -5.853545   -2.247632    0.397761 H         1 <1>         0.156600 
     36 H          -3.844438   -0.607844    1.155225 H         1 <1>         0.299800 
     37 H          -2.732717    0.436256   -1.327671 H         1 <1>         0.171600 
     38 H          -2.389331    1.124550    2.377593 H         1 <1>         0.141000 
     39 H          -2.850532    3.336426    3.374362 H         1 <1>         0.161700 
     40 H          -3.900830    4.868356   -0.509072 H         1 <1>         0.161500 
     41 H          -3.436146    2.649778   -1.504674 H         1 <1>         0.142600 
     42 H          -1.934357   -2.266477    0.479874 H         1 <1>         0.163700 
     43 H           0.456801   -2.993088    0.894385 H         1 <1>         0.155600 
     44 H           1.564592    1.974794   -0.212642 H         1 <1>         0.347200 
     45 H           3.509519   -1.079899    0.676803 H         1 <1>         0.188500 
     46 H           5.976695   -1.016914    0.865774 H         1 <1>         0.158100 
     47 H           5.958390    3.169732   -0.126038 H         1 <1>         0.158600 
     48 H           3.502760    3.108690   -0.315337 H         1 <1>         0.137700 
@<TRIPOS>BOND
     1    1   29 1    
     2   13   41 1    
     3    1   30 1    
     4   12   40 1    
     5    1   31 1    
     6    2    1 1    
     7    5   37 1    
     8   27   48 1    
     9   13   12 ar   
    10    6   13 ar   
    11   26   47 1    
    12   12    9 ar   
    13   19   44 1    
    14   27   26 ar   
    15   20   27 ar   
    16   26   23 ar   
    17    2   32 1    
    18   19   20 1    
    19   18   19 1    
    20    5    6 1    
    21   14    5 1    
    22    5    4 1    
    23    4    2 1    
    24    2    3 1    
    25   28   18 ar   
    26   28   14 ar   
    27   20   21 ar   
    28    6    7 ar   
    29   23   24 1    
    30   23   22 ar   
    31   24   25 3    
    32   18   17 ar   
    33   14   15 ar   
    34    3   33 1    
    35    9   10 1    
    36    9    8 ar   
    37    4   36 1    
    38   21   22 ar   
    39   21   45 1    
    40   22   46 1    
    41   10   11 3    
    42    3   35 1    
    43    3   34 1    
    44   17   16 ar   
    45   15   42 1    
    46   15   16 ar   
    47   16   43 1    
    48    7    8 ar   
    49    7   38 1    
    50    8   39 1    
@<TRIPOS>SUBSTRUCTURE
     1 ****       44 TEMP              0 ****  ****    0 ROOT 
