#	Name:			MG-2014-EJMC-600-4-1c
#	Creating user name:	Administrator
#	Creation time:		Sun Jul 05 16:39:13 2020

#	Modifying user name:	Administrator
#	Modification time:	Sun Jul 05 16:40:47 2020

@<TRIPOS>MOLECULE
MG-2014-EJMC-600-4-1c
   39    41     1     0     0
SMALL
MULLIKEN_CHARGES
INVALID_CHARGES
Gaussian 16 #p B3LYP/6-31G* opt
@<TRIPOS>ATOM
      1 N           8.767789    0.974548    0.747708 N.1       1 <1>        -0.481400 
      2 C           7.609132    0.971272    0.636062 C.1       1 <1>         0.229200 
      3 C           6.184709    0.967652    0.497819 C.ar      1 <1>         0.132700 
      4 C           5.499880    2.142313    0.139602 C.ar      1 <1>        -0.139800 
      5 C           4.121296    2.130340    0.006710 C.ar      1 <1>        -0.205400 
      6 C           3.382616    0.950183    0.225927 C.ar      1 <1>         0.380400 
      7 N           1.997302    1.042700    0.065413 N.pl3     1 <1>        -0.767300 
      8 C           0.981986    0.122076    0.188916 C.ar      1 <1>         0.691600 
      9 N           1.255720   -1.148297    0.527820 N.ar      1 <1>        -0.471400 
     10 C           0.198026   -1.959203    0.618301 C.ar      1 <1>         0.072200 
     11 C          -1.107804   -1.545107    0.375044 C.ar      1 <1>        -0.206300 
     12 C          -1.281416   -0.194225    0.030326 C.ar      1 <1>         0.211000 
     13 C          -2.636738    0.376677   -0.260957 C.2       1 <1>         0.212200 
     14 N          -3.468316   -0.153263   -1.100840 N.2       1 <1>        -0.307200 
     15 N          -3.185283   -1.304519   -1.758191 N.pl3     1 <1>        -0.546600 
     16 C          -3.077687    1.618425    0.422788 C.ar      1 <1>         0.153900 
     17 C          -4.183358    2.339061   -0.067792 C.ar      1 <1>        -0.172200 
     18 C          -4.632996    3.483808    0.572452 C.ar      1 <1>        -0.139800 
     19 C          -3.983624    3.945906    1.731708 C.ar      1 <1>         0.132800 
     20 C          -4.440104    5.131909    2.393176 C.1       1 <1>         0.234600 
     21 N          -4.810687    6.095671    2.929908 N.1       1 <1>        -0.479000 
     22 C          -2.882103    3.234903    2.231962 C.ar      1 <1>        -0.145800 
     23 C          -2.438624    2.087897    1.583127 C.ar      1 <1>        -0.184600 
     24 N          -0.239223    0.638975   -0.059805 N.ar      1 <1>        -0.522600 
     25 C           4.065122   -0.226134    0.585307 C.ar      1 <1>        -0.159700 
     26 C           5.448410   -0.207774    0.716961 C.ar      1 <1>        -0.152600 
     27 H           6.054672    3.058852   -0.032443 H         1 <1>         0.161400 
     28 H           3.602322    3.044865   -0.270676 H         1 <1>         0.141000 
     29 H           1.641240    1.954409   -0.194289 H         1 <1>         0.351100 
     30 H           0.411910   -2.988057    0.902921 H         1 <1>         0.162800 
     31 H          -1.948096   -2.223398    0.460915 H         1 <1>         0.175900 
     32 H          -3.752182   -1.381506   -2.593557 H         1 <1>         0.348400 
     33 H          -2.202679   -1.526185   -1.920875 H         1 <1>         0.321000 
     34 H          -4.683899    1.983514   -0.960917 H         1 <1>         0.160600 
     35 H          -5.483708    4.032194    0.180442 H         1 <1>         0.158400 
     36 H          -2.381135    3.582939    3.129639 H         1 <1>         0.157700 
     37 H          -1.586987    1.554260    1.988376 H         1 <1>         0.143800 
     38 H           3.506911   -1.135039    0.756103 H         1 <1>         0.188600 
     39 H           5.969567   -1.118574    0.994382 H         1 <1>         0.160300 
@<TRIPOS>BOND
     1   10   30 1    
     2   22   36 1    
     3   11   31 1    
     4   10   11 ar   
     5    9   10 ar   
     6   23   37 1    
     7   26   39 1    
     8   25   38 1    
     9   12   11 ar   
    10   23   22 ar   
    11   22   19 ar   
    12    8    9 ar   
    13   16   23 ar   
    14   25   26 ar   
    15   26    3 ar   
    16   20   21 3    
    17    6   25 ar   
    18   19   20 1    
    19   19   18 ar   
    20   12   13 1    
    21   24   12 ar   
    22    8   24 ar   
    23    7    8 1    
    24    2    1 3    
    25    3    2 1    
    26   13   16 1    
    27   16   17 ar   
    28    3    4 ar   
    29    6    7 1    
    30    6    5 ar   
    31   13   14 2    
    32    7   29 1    
    33   18   17 ar   
    34   18   35 1    
    35   17   34 1    
    36   14   15 1    
    37    4    5 ar   
    38    4   27 1    
    39    5   28 1    
    40   15   33 1    
    41   15   32 1    
@<TRIPOS>SUBSTRUCTURE
     1 ****        1 TEMP              0 ****  ****    0 ROOT 
