#	Name:			MG-2014-EJMC-600-4-1d
#	Creating user name:	Administrator
#	Creation time:		Sun Jul 05 16:39:13 2020

#	Modifying user name:	Administrator
#	Modification time:	Sun Jul 05 16:40:47 2020

@<TRIPOS>MOLECULE
MG-2014-EJMC-600-4-1d
   41    43     1     0     0
SMALL
MULLIKEN_CHARGES
INVALID_CHARGES
Gaussian 16 #p B3LYP/6-31G* opt
@<TRIPOS>ATOM
      1 N         -10.871297   -2.663536   -1.948386 N.1       1 <1>        -0.465800 
      2 C          -9.826706   -2.211964   -1.682597 C.1       1 <1>        -0.068900 
      3 C          -8.604406   -1.684418   -1.371400 C.1       1 <1>         0.384000 
      4 C          -7.514819   -1.215017   -1.094381 C.1       1 <1>         0.027100 
      5 C          -6.245338   -0.667440   -0.770920 C.ar      1 <1>        -0.004800 
      6 C          -5.082781   -1.119390   -1.424795 C.ar      1 <1>        -0.132200 
      7 C          -3.842562   -0.583797   -1.100008 C.ar      1 <1>        -0.191800 
      8 C          -3.714524    0.413262   -0.115556 C.ar      1 <1>         0.124300 
      9 C          -2.400372    1.034930    0.204874 C.2       1 <1>         0.156500 
     10 N          -2.461689    2.313278    0.467848 N.2       1 <1>        -0.292900 
     11 N          -1.391944    3.030028    0.802112 N.pl3     1 <1>        -0.535900 
     12 C          -1.171917    0.203650    0.243861 C.ar      1 <1>         0.341800 
     13 C          -1.223180   -1.179396    0.508757 C.ar      1 <1>        -0.211800 
     14 C          -0.014556   -1.855246    0.571383 C.ar      1 <1>         0.070400 
     15 N           1.173352   -1.268951    0.377538 N.ar      1 <1>        -0.479200 
     16 C           1.128527    0.045968    0.133251 C.ar      1 <1>         0.718500 
     17 N           2.294609    0.746656   -0.088499 N.pl3     1 <1>        -0.770100 
     18 C           3.638354    0.359518   -0.106926 C.ar      1 <1>         0.381400 
     19 C           4.577646    1.366361   -0.407549 C.ar      1 <1>        -0.206400 
     20 C           5.933606    1.087410   -0.446720 C.ar      1 <1>        -0.139400 
     21 C           6.393736   -0.214906   -0.184766 C.ar      1 <1>         0.132700 
     22 C           7.793311   -0.511249   -0.223256 C.1       1 <1>         0.229200 
     23 N           8.932077   -0.750301   -0.254873 N.1       1 <1>        -0.481000 
     24 C           5.457874   -1.218082    0.114656 C.ar      1 <1>        -0.152700 
     25 C           4.096057   -0.944402    0.155506 C.ar      1 <1>        -0.158200 
     26 N           0.018227    0.811148    0.072240 N.ar      1 <1>        -0.623700 
     27 C          -4.882346    0.864854    0.527057 C.ar      1 <1>        -0.161200 
     28 C          -6.125776    0.338764    0.210121 C.ar      1 <1>        -0.132100 
     29 H          -5.164599   -1.881560   -2.193192 H         1 <1>         0.155600 
     30 H          -2.963562   -0.931894   -1.633640 H         1 <1>         0.146900 
     31 H          -1.562502    4.025271    0.778357 H         1 <1>         0.348400 
     32 H          -0.474800    2.676992    0.536972 H         1 <1>         0.359000 
     33 H          -2.161102   -1.690587    0.679342 H         1 <1>         0.168300 
     34 H           0.014206   -2.921377    0.789023 H         1 <1>         0.161800 
     35 H           2.120194    1.720758   -0.297018 H         1 <1>         0.340900 
     36 H           4.234099    2.377899   -0.612457 H         1 <1>         0.135400 
     37 H           6.644118    1.873725   -0.680021 H         1 <1>         0.160600 
     38 H           5.804696   -2.226296    0.318052 H         1 <1>         0.161300 
     39 H           3.383036   -1.722636    0.384427 H         1 <1>         0.190900 
     40 H          -4.796374    1.640289    1.280255 H         1 <1>         0.157000 
     41 H          -7.015842    0.692438    0.720908 H         1 <1>         0.156200 
@<TRIPOS>BOND
     1   20   37 1    
     2   19   36 1    
     3    6   29 1    
     4    7   30 1    
     5   19   20 ar   
     6   20   21 ar   
     7   18   19 ar   
     8    7    6 ar   
     9    6    5 ar   
    10   17   35 1    
    11    8    7 ar   
    12    2    1 3    
    13    3    2 1    
    14    4    3 3    
    15   22   23 3    
    16   21   22 1    
    17    5    4 1    
    18   21   24 ar   
    19   17   18 1    
    20   16   17 1    
    21   18   25 ar   
    22    5   28 ar   
    23   11   31 1    
    24   11   32 1    
    25   26   16 ar   
    26   12   26 ar   
    27   10   11 1    
    28    9   10 2    
    29    9    8 1    
    30    8   27 ar   
    31    9   12 1    
    32   16   15 ar   
    33   24   25 ar   
    34   24   38 1    
    35   25   39 1    
    36   12   13 ar   
    37   28   27 ar   
    38   28   41 1    
    39   27   40 1    
    40   15   14 ar   
    41   13   14 ar   
    42   13   33 1    
    43   14   34 1    
@<TRIPOS>SUBSTRUCTURE
     1 ****        1 TEMP              0 ****  ****    0 ROOT 
