#	Name:			MG-2014-EJMC-600-4-1a
#	Creating user name:	Administrator
#	Creation time:		Sun Jul 05 16:39:13 2020

#	Modifying user name:	Administrator
#	Modification time:	Sun Jul 05 16:40:47 2020

@<TRIPOS>MOLECULE
MG-2014-EJMC-600-4-1a
   38    40     1     0     0
SMALL
MULLIKEN_CHARGES
INVALID_CHARGES
Gaussian 16 #p B3LYP/6-31G* opt
@<TRIPOS>ATOM
      1 N           8.752363    1.034432    0.707986 N.1       1 <1>        -0.482500 
      2 C           7.593391    1.022279    0.599835 C.1       1 <1>         0.228600 
      3 C           6.168663    1.008498    0.466512 C.ar      1 <1>         0.132200 
      4 C           5.474760    2.175838    0.101929 C.ar      1 <1>        -0.140000 
      5 C           4.095917    2.154320   -0.025148 C.ar      1 <1>        -0.205500 
      6 C           3.365132    0.971337    0.206362 C.ar      1 <1>         0.381400 
      7 N           1.979226    1.053742    0.052855 N.pl3     1 <1>        -0.768400 
      8 C           0.971348    0.124517    0.186440 C.ar      1 <1>         0.694600 
      9 N           1.253409   -1.139674    0.533960 N.ar      1 <1>        -0.471600 
     10 C           0.202090   -1.960971    0.624228 C.ar      1 <1>         0.067600 
     11 C          -1.105547   -1.561882    0.374727 C.ar      1 <1>        -0.166500 
     12 C          -1.284583   -0.215436    0.029110 C.ar      1 <1>         0.267600 
     13 C          -2.637016    0.371863   -0.242858 C.2       1 <1>         0.211700 
     14 N          -3.512994   -0.150960   -1.033088 N.2       1 <1>        -0.226300 
     15 O          -3.081538   -1.321663   -1.652863 O.2       1 <1>        -0.490400 
     16 C          -3.033062    1.648816    0.405397 C.ar      1 <1>         0.149200 
     17 C          -2.456081    2.053881    1.619982 C.ar      1 <1>        -0.174900 
     18 C          -2.858936    3.229334    2.243445 C.ar      1 <1>        -0.145200 
     19 C          -3.851582    4.030519    1.657604 C.ar      1 <1>         0.135100 
     20 C          -4.264901    5.246872    2.293102 C.1       1 <1>         0.238200 
     21 N          -4.600626    6.234459    2.808743 N.1       1 <1>        -0.474000 
     22 C          -4.434046    3.634114    0.440796 C.ar      1 <1>        -0.140600 
     23 C          -4.026305    2.458709   -0.173794 C.ar      1 <1>        -0.167500 
     24 N          -0.255700    0.631048   -0.056013 N.ar      1 <1>        -0.533000 
     25 C           4.056906   -0.198045    0.571479 C.ar      1 <1>        -0.159900 
     26 C           5.440391   -0.169985    0.697161 C.ar      1 <1>        -0.152700 
     27 H           6.023170    3.094466   -0.079722 H         1 <1>         0.160400 
     28 H           3.570139    3.063352   -0.307884 H         1 <1>         0.139700 
     29 H           1.615836    1.959701   -0.215718 H         1 <1>         0.349900 
     30 H           0.425746   -2.987072    0.909989 H         1 <1>         0.161000 
     31 H          -1.936837   -2.251062    0.434219 H         1 <1>         0.164100 
     32 H          -3.847946   -1.557793   -2.200066 H         1 <1>         0.429400 
     33 H          -1.688854    1.446288    2.086043 H         1 <1>         0.150400 
     34 H          -2.410874    3.531184    3.184429 H         1 <1>         0.162700 
     35 H          -5.196636    4.256129   -0.016556 H         1 <1>         0.163000 
     36 H          -4.470897    2.154776   -1.114491 H         1 <1>         0.163700 
     37 H           3.504827   -1.109087    0.750665 H         1 <1>         0.188800 
     38 H           5.968373   -1.075518    0.978961 H         1 <1>         0.159700 
@<TRIPOS>BOND
     1   10   30 1    
     2   18   34 1    
     3   17   33 1    
     4   10   11 ar   
     5    9   10 ar   
     6   11   31 1    
     7   26   38 1    
     8   17   18 ar   
     9   18   19 ar   
    10   25   37 1    
    11   12   11 ar   
    12    8    9 ar   
    13   16   17 ar   
    14   20   21 3    
    15   25   26 ar   
    16   26    3 ar   
    17    6   25 ar   
    18   19   20 1    
    19   19   22 ar   
    20   24   12 ar   
    21   12   13 1    
    22    8   24 ar   
    23    7    8 1    
    24    2    1 3    
    25    3    2 1    
    26   13   16 1    
    27   16   23 ar   
    28    3    4 ar   
    29    6    7 1    
    30    6    5 ar   
    31   13   14 2    
    32    7   29 1    
    33   22   23 ar   
    34   22   35 1    
    35   14   15 1    
    36    4    5 ar   
    37    4   27 1    
    38   23   36 1    
    39    5   28 1    
    40   15   32 1    
@<TRIPOS>SUBSTRUCTURE
     1 ****        1 TEMP              0 ****  ****    0 ROOT 
