#	Name:			MG-2014-EJMC-600-4-1p
#	Creating user name:	Administrator
#	Creation time:		Sun Jul 05 16:39:14 2020

#	Modifying user name:	Administrator
#	Modification time:	Sun Jul 05 16:40:47 2020

@<TRIPOS>MOLECULE
MG-2014-EJMC-600-4-1p
   47    49     1     0     0
SMALL
MULLIKEN_CHARGES
INVALID_CHARGES
Gaussian 16 #p B3LYP/6-31G* opt
@<TRIPOS>ATOM
      1 C          -5.960038    0.606530    0.023907 C.3       1 <1>        -0.451400 
      2 C          -5.090139   -0.632571   -0.260668 C.3       1 <1>         0.055500 
      3 C          -5.039266   -0.950754   -1.759550 C.3       1 <1>        -0.452200 
      4 N          -3.738336   -0.618943    0.331684 N.3       1 <1>        -0.575200 
      5 C          -2.720010    0.302816   -0.163347 C.3       1 <1>        -0.136800 
      6 C          -1.313994   -0.247450    0.122358 C.ar      1 <1>         0.330000 
      7 C          -1.093187   -1.589592    0.456645 C.ar      1 <1>        -0.192100 
      8 C           0.230916   -1.970221    0.630371 C.ar      1 <1>         0.069900 
      9 N           1.266329   -1.132363    0.492551 N.ar      1 <1>        -0.477800 
     10 C           0.940521    0.124443    0.164857 C.ar      1 <1>         0.690800 
     11 N           1.925188    1.078315   -0.007667 N.pl3     1 <1>        -0.767100 
     12 C           3.314150    1.026471    0.088288 C.ar      1 <1>         0.384200 
     13 C           4.011786    2.228022   -0.155748 C.ar      1 <1>        -0.205900 
     14 C           5.393684    2.277311   -0.086329 C.ar      1 <1>        -0.140800 
     15 C           6.127452    1.120181    0.231128 C.ar      1 <1>         0.130000 
     16 C           7.555446    1.163493    0.303996 C.1       1 <1>         0.225900 
     17 N           8.717795    1.200457    0.362480 N.1       1 <1>        -0.487200 
     18 C           5.433238   -0.076575    0.474766 C.ar      1 <1>        -0.153600 
     19 C           4.047014   -0.132745    0.406848 C.ar      1 <1>        -0.160600 
     20 N          -0.302400    0.607075   -0.030158 N.ar      1 <1>        -0.551200 
     21 C          -2.843197    1.778997    0.242237 C.ar      1 <1>         0.236900 
     22 C          -3.003306    2.750713   -0.755545 C.ar      1 <1>        -0.201500 
     23 C          -3.144287    4.105060   -0.457965 C.ar      1 <1>        -0.123000 
     24 C          -3.124524    4.525486    0.871314 C.ar      1 <1>        -0.128700 
     25 C          -2.956199    3.587595    1.889002 C.ar      1 <1>        -0.125000 
     26 C          -2.815369    2.238998    1.565798 C.ar      1 <1>        -0.138600 
     27 CL         -2.581109    1.111840    2.911285 Cl        1 <1>        -0.030600 
     28 H          -5.991521    0.826716    1.097395 H         1 <1>         0.144200 
     29 H          -6.989750    0.432819   -0.312135 H         1 <1>         0.140200 
     30 H          -5.583836    1.496588   -0.490174 H         1 <1>         0.152300 
     31 H          -5.577437   -1.487282    0.228672 H         1 <1>         0.133900 
     32 H          -4.662543   -0.106845   -2.350113 H         1 <1>         0.140200 
     33 H          -6.046065   -1.173679   -2.128574 H         1 <1>         0.150200 
     34 H          -4.400493   -1.819232   -1.950439 H         1 <1>         0.156700 
     35 H          -3.803975   -0.557416    1.344029 H         1 <1>         0.317600 
     36 H          -2.797795    0.291021   -1.257312 H         1 <1>         0.172400 
     37 H          -1.920094   -2.277176    0.568549 H         1 <1>         0.160400 
     38 H           0.485972   -2.995345    0.894279 H         1 <1>         0.151600 
     39 H           1.527503    1.979484   -0.240519 H         1 <1>         0.345800 
     40 H           3.455301    3.129413   -0.402039 H         1 <1>         0.134800 
     41 H           5.914696    3.210061   -0.276994 H         1 <1>         0.155600 
     42 H           5.991340   -0.974523    0.720967 H         1 <1>         0.156500 
     43 H           3.519743   -1.056514    0.596602 H         1 <1>         0.188900 
     44 H          -3.014408    2.428423   -1.794140 H         1 <1>         0.136400 
     45 H          -3.268018    4.826213   -1.260791 H         1 <1>         0.138900 
     46 H          -3.236110    5.576480    1.121791 H         1 <1>         0.142400 
     47 H          -2.929969    3.893081    2.929680 H         1 <1>         0.157000 
@<TRIPOS>BOND
     1    3   32 1    
     2   22   44 1    
     3   23   45 1    
     4    3   33 1    
     5    3   34 1    
     6    2    3 1    
     7    5   36 1    
     8   22   23 ar   
     9   21   22 ar   
    10   23   24 ar   
    11   13   40 1    
    12    1   30 1    
    13   14   41 1    
    14   11   39 1    
    15   13   14 ar   
    16   12   13 ar   
    17    1   29 1    
    18   14   15 ar   
    19    5   21 1    
    20    6    5 1    
    21    5    4 1    
    22    2    1 1    
    23    4    2 1    
    24    2   31 1    
    25   11   12 1    
    26   10   11 1    
    27   20   10 ar   
    28   20    6 ar   
    29    1   28 1    
    30   12   19 ar   
    31   21   26 ar   
    32   15   16 1    
    33   15   18 ar   
    34   10    9 ar   
    35    6    7 ar   
    36   24   46 1    
    37   24   25 ar   
    38   16   17 3    
    39    4   35 1    
    40   19   18 ar   
    41   19   43 1    
    42   18   42 1    
    43    9    8 ar   
    44    7   37 1    
    45    7    8 ar   
    46    8   38 1    
    47   26   25 ar   
    48   26   27 1    
    49   25   47 1    
@<TRIPOS>SUBSTRUCTURE
     1 ****       39 TEMP              0 ****  ****    0 ROOT 
