#	Name:			MXD-2011-CMC-2225-9b
#	Creating user name:	Administrator
#	Creation time:		Sun Jul 05 16:39:25 2020

#	Modifying user name:	Administrator
#	Modification time:	Sun Jul 05 16:40:47 2020

@<TRIPOS>MOLECULE
MXD-2011-CMC-2225-9b
   41    43     1     0     0
SMALL
MULLIKEN_CHARGES
INVALID_CHARGES
Gaussian 16 #p B3LYP/6-31G* opt
@<TRIPOS>ATOM
      1 C          -3.441877    0.720598    2.726465 C.3       1 <1>        -0.534000 
      2 C          -4.243104    0.275299    1.523694 C.ar      1 <1>         0.163000 
      3 C          -5.515452   -0.286761    1.689916 C.ar      1 <1>        -0.194400 
      4 C          -6.272779   -0.712378    0.598060 C.ar      1 <1>        -0.117700 
      5 C          -5.767029   -0.575663   -0.694431 C.ar      1 <1>        -0.137300 
      6 C          -4.502999   -0.016190   -0.880277 C.ar      1 <1>        -0.145600 
      7 C          -3.729787    0.402979    0.213180 C.ar      1 <1>        -0.052000 
      8 C          -2.383602    1.020279   -0.036464 C.2       1 <1>         0.154600 
      9 N          -2.231960    2.250333   -0.417356 N.2       1 <1>        -0.265500 
     10 N          -3.320159    3.009647   -0.645110 N.pl3     1 <1>        -0.539200 
     11 C          -1.156749    0.206563    0.132217 C.ar      1 <1>         0.331900 
     12 C          -1.235009   -1.173940    0.402999 C.ar      1 <1>        -0.219900 
     13 C          -0.033053   -1.853370    0.544102 C.ar      1 <1>         0.067800 
     14 N           1.164979   -1.268490    0.433282 N.ar      1 <1>        -0.480700 
     15 C           1.126035    0.047733    0.169823 C.ar      1 <1>         0.690700 
     16 N           2.304150    0.758536    0.028697 N.pl3     1 <1>        -0.768500 
     17 C           3.644429    0.388984    0.103759 C.ar      1 <1>         0.384600 
     18 C           4.596370    1.409493   -0.104995 C.ar      1 <1>        -0.205900 
     19 C           5.953524    1.141910   -0.049602 C.ar      1 <1>        -0.141000 
     20 C           6.407188   -0.162364    0.217809 C.ar      1 <1>         0.129500 
     21 C           7.807894   -0.446307    0.277025 C.1       1 <1>         0.225200 
     22 N           8.948416   -0.675993    0.325231 N.1       1 <1>        -0.488500 
     23 C           5.460191   -1.179047    0.425603 C.ar      1 <1>        -0.153800 
     24 C           4.097209   -0.917377    0.371434 C.ar      1 <1>        -0.161000 
     25 N           0.033203    0.811732    0.020013 N.ar      1 <1>        -0.550800 
     26 H          -4.045953    0.676318    3.637623 H         1 <1>         0.157600 
     27 H          -2.561333    0.083956    2.877788 H         1 <1>         0.174800 
     28 H          -3.072849    1.745990    2.612372 H         1 <1>         0.166800 
     29 H          -5.917448   -0.390714    2.695025 H         1 <1>         0.130800 
     30 H          -7.256328   -1.145769    0.758401 H         1 <1>         0.136700 
     31 H          -6.349620   -0.900826   -1.551805 H         1 <1>         0.137900 
     32 H          -4.100509    0.098118   -1.883384 H         1 <1>         0.148600 
     33 H          -4.199080    2.741632   -0.202580 H         1 <1>         0.323800 
     34 H          -3.105229    3.996959   -0.612311 H         1 <1>         0.345200 
     35 H          -2.184917   -1.686503    0.487414 H         1 <1>         0.155900 
     36 H          -0.021019   -2.921801    0.754208 H         1 <1>         0.150000 
     37 H           2.119160    1.733518   -0.171668 H         1 <1>         0.347500 
     38 H           4.258002    2.421956   -0.312870 H         1 <1>         0.135300 
     39 H           6.671795    1.939051   -0.212906 H         1 <1>         0.155000 
     40 H           5.800850   -2.188867    0.632462 H         1 <1>         0.155200 
     41 H           3.374886   -1.704569    0.531907 H         1 <1>         0.187700 
@<TRIPOS>BOND
     1    5   31 1    
     2    6   32 1    
     3    6    5 ar   
     4    5    4 ar   
     5    7    6 ar   
     6   13   36 1    
     7   12   35 1    
     8   13   12 ar   
     9   14   13 ar   
    10   11   12 ar   
    11   15   14 ar   
    12    4   30 1    
    13   24   41 1    
    14    4    3 ar   
    15   11    8 1    
    16   25   11 ar   
    17    9   10 1    
    18   10   33 1    
    19   10   34 1    
    20   23   40 1    
    21    8    7 1    
    22    8    9 2    
    23    7    2 ar   
    24   15   25 ar   
    25   16   15 1    
    26   24   23 ar   
    27   17   24 ar   
    28   23   20 ar   
    29   16   17 1    
    30   16   37 1    
    31   17   18 ar   
    32   20   21 1    
    33   20   19 ar   
    34   21   22 3    
    35   18   19 ar   
    36   18   38 1    
    37   19   39 1    
    38    3    2 ar   
    39    3   29 1    
    40    2    1 1    
    41    1   27 1    
    42    1   28 1    
    43    1   26 1    
@<TRIPOS>SUBSTRUCTURE
     1 ****       36 TEMP              0 ****  ****    0 ROOT 
