#	Name:			MXD-2011-CMC-2225-9i
#	Creating user name:	Administrator
#	Creation time:		Sun Jul 05 16:39:26 2020

#	Modifying user name:	Administrator
#	Modification time:	Sun Jul 05 16:40:47 2020

@<TRIPOS>MOLECULE
MXD-2011-CMC-2225-9i
   38    40     1     0     0
SMALL
MULLIKEN_CHARGES
INVALID_CHARGES
Gaussian 16 #p B3LYP/6-31G* opt
@<TRIPOS>ATOM
      1 N           8.947332   -0.612555    0.456271 N.1       1 <1>        -0.487500 
      2 C           7.805982   -0.391912    0.390133 C.1       1 <1>         0.225800 
      3 C           6.404117   -0.119035    0.308593 C.ar      1 <1>         0.129900 
      4 C           5.944854    1.180491    0.028609 C.ar      1 <1>        -0.140800 
      5 C           4.586584    1.437283   -0.048711 C.ar      1 <1>        -0.205700 
      6 C           3.639867    0.410269    0.149790 C.ar      1 <1>         0.384300 
      7 N           2.297552    0.769739    0.052274 N.pl3     1 <1>        -0.768300 
      8 C           1.123708    0.050938    0.177981 C.ar      1 <1>         0.692100 
      9 N           1.167339   -1.264038    0.446592 N.ar      1 <1>        -0.478700 
     10 C          -0.027034   -1.857692    0.541395 C.ar      1 <1>         0.069600 
     11 C          -1.232505   -1.187644    0.381027 C.ar      1 <1>        -0.215800 
     12 C          -1.159449    0.191516    0.106813 C.ar      1 <1>         0.323000 
     13 C          -2.385695    1.003994   -0.096933 C.2       1 <1>         0.162600 
     14 N          -2.228794    2.180984   -0.615388 N.2       1 <1>        -0.262600 
     15 N          -3.300466    2.956816   -0.871870 N.pl3     1 <1>        -0.541000 
     16 C          -3.719990    0.439113    0.287231 C.ar      1 <1>         0.018900 
     17 C          -4.708748    0.209570   -0.682905 C.ar      1 <1>        -0.155100 
     18 C          -5.953036   -0.303094   -0.315106 C.ar      1 <1>        -0.131500 
     19 C          -6.236836   -0.590669    1.020435 C.ar      1 <1>        -0.124900 
     20 C          -5.253583   -0.355503    1.981172 C.ar      1 <1>        -0.070400 
     21 CL         -5.595745   -0.707371    3.669289 Cl        1 <1>        -0.011700 
     22 C          -4.004437    0.153733    1.632144 C.ar      1 <1>        -0.154300 
     23 N           0.026242    0.806095    0.011468 N.ar      1 <1>        -0.547100 
     24 C           4.098027   -0.891381    0.430022 C.ar      1 <1>        -0.160800 
     25 C           5.462081   -1.142314    0.506273 C.ar      1 <1>        -0.153600 
     26 H           6.659300    1.982499   -0.126890 H         1 <1>         0.155700 
     27 H           4.243667    2.446280   -0.266076 H         1 <1>         0.135700 
     28 H           2.109054    1.742720   -0.154469 H         1 <1>         0.347900 
     29 H          -0.010442   -2.925476    0.753727 H         1 <1>         0.152500 
     30 H          -2.177282   -1.710518    0.453507 H         1 <1>         0.154500 
     31 H          -4.151999    2.792821   -0.334238 H         1 <1>         0.322500 
     32 H          -3.038394    3.930464   -0.953343 H         1 <1>         0.348100 
     33 H          -4.495833    0.429445   -1.724722 H         1 <1>         0.161000 
     34 H          -6.709622   -0.484977   -1.073178 H         1 <1>         0.150600 
     35 H          -7.201454   -0.989892    1.314717 H         1 <1>         0.162900 
     36 H          -3.256031    0.325655    2.398636 H         1 <1>         0.168100 
     37 H           3.379719   -1.683742    0.582844 H         1 <1>         0.188100 
     38 H           5.807356   -2.148459    0.722755 H         1 <1>         0.156000 
@<TRIPOS>BOND
     1   20   21 1    
     2   22   36 1    
     3    5   27 1    
     4    4   26 1    
     5   15   32 1    
     6   15   31 1    
     7    5    4 ar   
     8    6    5 ar   
     9    4    3 ar   
    10    7   28 1    
    11   14   15 1    
    12   22   20 ar   
    13   16   22 ar   
    14   20   19 ar   
    15   13   14 2    
    16    7    6 1    
    17    8    7 1    
    18    6   24 ar   
    19    3    2 1    
    20    3   25 ar   
    21    2    1 3    
    22   23    8 ar   
    23   12   23 ar   
    24   13   16 1    
    25   13   12 1    
    26    8    9 ar   
    27   16   17 ar   
    28   12   11 ar   
    29   24   25 ar   
    30   24   37 1    
    31   25   38 1    
    32   19   35 1    
    33   19   18 ar   
    34    9   10 ar   
    35   11   10 ar   
    36   11   30 1    
    37   17   18 ar   
    38   17   33 1    
    39   10   29 1    
    40   18   34 1    
@<TRIPOS>SUBSTRUCTURE
     1 ****       32 TEMP              0 ****  ****    0 ROOT 
