#	Name:			MXD-2011-CMC-2225-9n
#	Creating user name:	Administrator
#	Creation time:		Sun Jul 05 16:39:26 2020

#	Modifying user name:	Administrator
#	Modification time:	Sun Jul 05 16:40:47 2020

@<TRIPOS>MOLECULE
MXD-2011-CMC-2225-9n
   50    52     1     0     0
SMALL
MULLIKEN_CHARGES
INVALID_CHARGES
Gaussian 16 #p B3LYP/6-31G* opt
@<TRIPOS>ATOM
      1 C          -8.753330   -0.411238   -0.385989 C.3       1 <1>        -0.440000 
      2 C          -7.665317   -1.511568   -0.385097 C.3       1 <1>         0.014400 
      3 C          -7.822272   -2.343530   -1.672016 C.3       1 <1>        -0.458500 
      4 C          -7.886315   -2.449672    0.825614 C.3       1 <1>        -0.439900 
      5 C          -6.276683   -0.856468   -0.277230 C.ar      1 <1>         0.184600 
      6 C          -5.958366   -0.062178    0.838387 C.ar      1 <1>        -0.191700 
      7 C          -4.713978    0.546969    0.974389 C.ar      1 <1>        -0.166100 
      8 C          -3.721453    0.383613   -0.006573 C.ar      1 <1>         0.025100 
      9 C          -2.385497    1.045781    0.126393 C.2       1 <1>         0.161800 
     10 N          -2.217412    2.330203    0.178359 N.2       1 <1>        -0.267800 
     11 N          -3.289284    3.149994    0.152149 N.pl3     1 <1>        -0.542000 
     12 C          -1.158938    0.212904    0.213190 C.ar      1 <1>         0.320300 
     13 C          -1.230648   -1.168126    0.481001 C.ar      1 <1>        -0.214100 
     14 C          -0.027068   -1.854734    0.556701 C.ar      1 <1>         0.067800 
     15 N           1.167434   -1.275073    0.391272 N.ar      1 <1>        -0.480400 
     16 C           1.122846    0.043736    0.144826 C.ar      1 <1>         0.690300 
     17 N           2.296550    0.752410   -0.039805 N.pl3     1 <1>        -0.768300 
     18 C           3.637007    0.376946   -0.030021 C.ar      1 <1>         0.384700 
     19 C           4.095180   -0.936676    0.189395 C.ar      1 <1>        -0.161100 
     20 C           5.457866   -1.204598    0.176626 C.ar      1 <1>        -0.153800 
     21 C           6.399578   -0.187253   -0.051889 C.ar      1 <1>         0.129300 
     22 C           7.800072   -0.478066   -0.062860 C.1       1 <1>         0.225100 
     23 N           8.940424   -0.713449   -0.072430 N.1       1 <1>        -0.488700 
     24 C           5.940619    1.124158   -0.270346 C.ar      1 <1>        -0.141100 
     25 C           4.583614    1.398025   -0.258945 C.ar      1 <1>        -0.205900 
     26 N           0.026940    0.811511    0.040844 N.ar      1 <1>        -0.546600 
     27 C          -4.031127   -0.404190   -1.122882 C.ar      1 <1>        -0.160200 
     28 C          -5.282241   -1.009748   -1.253459 C.ar      1 <1>        -0.200300 
     29 H          -8.627808    0.264567   -1.239750 H         1 <1>         0.147200 
     30 H          -8.724072    0.193258    0.526614 H         1 <1>         0.144000 
     31 H          -9.750274   -0.862750   -0.454336 H         1 <1>         0.143700 
     32 H          -8.822883   -2.788749   -1.702474 H         1 <1>         0.145800 
     33 H          -7.095860   -3.162736   -1.720433 H         1 <1>         0.147400 
     34 H          -7.707723   -1.729681   -2.572691 H         1 <1>         0.146700 
     35 H          -7.831322   -1.910191    1.776814 H         1 <1>         0.144700 
     36 H          -7.133130   -3.245503    0.848202 H         1 <1>         0.148900 
     37 H          -8.875298   -2.919681    0.766104 H         1 <1>         0.143300 
     38 H          -6.693763    0.084360    1.624530 H         1 <1>         0.133500 
     39 H          -4.503770    1.151967    1.852287 H         1 <1>         0.152600 
     40 H          -3.028575    4.081830   -0.143654 H         1 <1>         0.344100 
     41 H          -4.145937    2.797085   -0.275991 H         1 <1>         0.320900 
     42 H          -2.175765   -1.673171    0.632347 H         1 <1>         0.154900 
     43 H          -0.010141   -2.923627    0.763463 H         1 <1>         0.149300 
     44 H           2.107038    1.732274   -0.209778 H         1 <1>         0.347400 
     45 H           3.377006   -1.724149    0.366471 H         1 <1>         0.187600 
     46 H           5.802694   -2.219867    0.346662 H         1 <1>         0.155000 
     47 H           6.654573    1.922043   -0.447968 H         1 <1>         0.154700 
     48 H           4.241114    2.416245   -0.428972 H         1 <1>         0.135100 
     49 H          -3.284829   -0.548077   -1.900092 H         1 <1>         0.141600 
     50 H          -5.472559   -1.608893   -2.136932 H         1 <1>         0.134800 
@<TRIPOS>BOND
     1    4   35 1    
     2    7   39 1    
     3    6   38 1    
     4    4   36 1    
     5    4   37 1    
     6    2    4 1    
     7    6    7 ar   
     8    7    8 ar   
     9   14   43 1    
    10    5    6 ar   
    11   13   42 1    
    12   13   14 ar   
    13   14   15 ar   
    14    1   30 1    
    15   12   13 ar   
    16   16   15 ar   
    17   19   45 1    
    18   20   46 1    
    19    9   12 1    
    20   12   26 ar   
    21   19   20 ar   
    22   18   19 ar   
    23   20   21 ar   
    24   26   16 ar   
    25   16   17 1    
    26    9   10 2    
    27    8    9 1    
    28   10   11 1    
    29    8   27 ar   
    30   11   40 1    
    31   11   41 1    
    32   17   18 1    
    33   18   25 ar   
    34   17   44 1    
    35   21   22 1    
    36   21   24 ar   
    37    2    5 1    
    38    5   28 ar   
    39   22   23 3    
    40    2    1 1    
    41    2    3 1    
    42    1   31 1    
    43    1   29 1    
    44   25   24 ar   
    45   25   48 1    
    46   24   47 1    
    47   27   28 ar   
    48   27   49 1    
    49   28   50 1    
    50    3   32 1    
    51    3   33 1    
    52    3   34 1    
@<TRIPOS>SUBSTRUCTURE
     1 ****       45 TEMP              0 ****  ****    0 ROOT 
