#	Name:			MXD-2011-CMC-2225-9k
#	Creating user name:	Administrator
#	Creation time:		Sun Jul 05 16:39:26 2020

#	Modifying user name:	Administrator
#	Modification time:	Sun Jul 05 16:40:47 2020

@<TRIPOS>MOLECULE
MXD-2011-CMC-2225-9k
   38    40     1     0     0
SMALL
MULLIKEN_CHARGES
INVALID_CHARGES
Gaussian 16 #p B3LYP/6-31G* opt
@<TRIPOS>ATOM
      1 N           8.711762    1.140527   -0.277667 N.1       1 <1>        -0.487500 
      2 C           7.548145    1.110801   -0.250537 C.1       1 <1>         0.225700 
      3 C           6.118435    1.076803   -0.217237 C.ar      1 <1>         0.129900 
      4 C           5.370267    2.232352   -0.505625 C.ar      1 <1>        -0.140900 
      5 C           3.986801    2.192605   -0.470880 C.ar      1 <1>        -0.206000 
      6 C           3.301677    1.002326   -0.148254 C.ar      1 <1>         0.384200 
      7 N           1.910227    1.063608   -0.137556 N.pl3     1 <1>        -0.769100 
      8 C           0.935944    0.117148    0.120550 C.ar      1 <1>         0.694800 
      9 N           1.277797   -1.137689    0.430710 N.ar      1 <1>        -0.482700 
     10 C           0.246515   -1.968219    0.657502 C.ar      1 <1>         0.064500 
     11 C          -1.079720   -1.582690    0.582379 C.ar      1 <1>        -0.184600 
     12 C          -1.322097   -0.235586    0.248680 C.ar      1 <1>         0.332800 
     13 C          -2.691022    0.310836    0.130517 C.2       1 <1>         0.147100 
     14 N          -3.665968   -0.521988    0.305624 N.2       1 <1>        -0.289000 
     15 N          -4.941990   -0.089264    0.262570 N.pl3     1 <1>        -0.534900 
     16 C          -2.873523    1.771987   -0.146121 C.ar      1 <1>         0.067600 
     17 C          -2.703878    2.701764    0.891930 C.ar      1 <1>        -0.132500 
     18 C          -2.889543    4.065788    0.681055 C.ar      1 <1>        -0.133500 
     19 C          -3.253972    4.531072   -0.584070 C.ar      1 <1>        -0.122500 
     20 C          -3.432682    3.631085   -1.633227 C.ar      1 <1>        -0.155600 
     21 C          -3.241824    2.268768   -1.402794 C.ar      1 <1>         0.036500 
     22 BR         -3.498117    1.058381   -2.867020 Br        1 <1>        -0.122300 
     23 N          -0.313955    0.612626    0.021186 N.ar      1 <1>        -0.583200 
     24 C           4.048948   -0.155682    0.140369 C.ar      1 <1>        -0.160600 
     25 C           5.436715   -0.108937    0.103818 C.ar      1 <1>        -0.153700 
     26 H           5.881421    3.156438   -0.755920 H         1 <1>         0.155300 
     27 H           3.419161    3.092537   -0.696230 H         1 <1>         0.134400 
     28 H           1.500933    1.960991   -0.364630 H         1 <1>         0.345600 
     29 H           0.514555   -2.992060    0.912220 H         1 <1>         0.151000 
     30 H          -1.895670   -2.268082    0.767837 H         1 <1>         0.163400 
     31 H          -5.134156    0.745264   -0.289842 H         1 <1>         0.331300 
     32 H          -5.580761   -0.852391    0.080423 H         1 <1>         0.346600 
     33 H          -2.416565    2.336685    1.873570 H         1 <1>         0.151700 
     34 H          -2.750192    4.763775    1.501423 H         1 <1>         0.144300 
     35 H          -3.400894    5.593140   -0.758884 H         1 <1>         0.146200 
     36 H          -3.714293    3.975921   -2.622119 H         1 <1>         0.159900 
     37 H           3.531075   -1.071039    0.387438 H         1 <1>         0.189400 
     38 H           6.006065   -1.005770    0.327454 H         1 <1>         0.156300 
@<TRIPOS>BOND
     1   18   34 1    
     2   17   33 1    
     3   17   18 ar   
     4   18   19 ar   
     5   16   17 ar   
     6   19   35 1    
     7   19   20 ar   
     8   14   15 1    
     9   15   31 1    
    10   15   32 1    
    11   13   16 1    
    12   16   21 ar   
    13   13   14 2    
    14   12   13 1    
    15   23   12 ar   
    16   12   11 ar   
    17   11   30 1    
    18    8   23 ar   
    19   10   11 ar   
    20    7   28 1    
    21    7    8 1    
    22    8    9 ar   
    23    9   10 ar   
    24   10   29 1    
    25    6    7 1    
    26    5   27 1    
    27    6    5 ar   
    28    6   24 ar   
    29    5    4 ar   
    30   20   21 ar   
    31   20   36 1    
    32   24   37 1    
    33   24   25 ar   
    34    4   26 1    
    35    4    3 ar   
    36   25    3 ar   
    37   25   38 1    
    38   21   22 1    
    39    3    2 1    
    40    2    1 3    
@<TRIPOS>SUBSTRUCTURE
     1 ****       15 TEMP              0 ****  ****    0 ROOT 
