#	Name:			MXD-2011-CMC-2225-9p
#	Creating user name:	Administrator
#	Creation time:		Sun Jul 05 16:39:26 2020

#	Modifying user name:	Administrator
#	Modification time:	Sun Jul 05 16:40:47 2020

@<TRIPOS>MOLECULE
MXD-2011-CMC-2225-9p
   38    40     1     0     0
SMALL
MULLIKEN_CHARGES
INVALID_CHARGES
Gaussian 16 #p B3LYP/6-31G* opt
@<TRIPOS>ATOM
      1 N           8.720182    1.108605   -0.313412 N.1       1 <1>        -0.486200 
      2 C           7.556614    1.084450   -0.280191 C.1       1 <1>         0.226700 
      3 C           6.126729    1.056177   -0.239820 C.ar      1 <1>         0.130600 
      4 C           5.442664   -0.129928    0.073817 C.ar      1 <1>        -0.153600 
      5 C           4.054689   -0.171826    0.116573 C.ar      1 <1>        -0.160300 
      6 C           3.311145    0.991429   -0.158158 C.ar      1 <1>         0.383000 
      7 N           1.918533    1.057927   -0.143165 N.pl3     1 <1>        -0.768800 
      8 C           0.943263    0.115498    0.117188 C.ar      1 <1>         0.696400 
      9 N           1.281122   -1.140467    0.428093 N.ar      1 <1>        -0.481300 
     10 C           0.248204   -1.966746    0.658969 C.ar      1 <1>         0.065400 
     11 C          -1.077724   -1.577381    0.588289 C.ar      1 <1>        -0.184700 
     12 C          -1.317842   -0.229662    0.255846 C.ar      1 <1>         0.322500 
     13 C          -2.693612    0.318242    0.154441 C.2       1 <1>         0.165700 
     14 N          -3.652776   -0.524315    0.379097 N.2       1 <1>        -0.300600 
     15 N          -4.941559   -0.126047    0.355969 N.pl3     1 <1>        -0.539900 
     16 C          -2.904559    1.761839   -0.172530 C.ar      1 <1>         0.069600 
     17 C          -3.614815    2.594320    0.705842 C.ar      1 <1>        -0.156800 
     18 C          -3.821527    3.937116    0.401681 C.ar      1 <1>        -0.134700 
     19 C          -3.328728    4.474738   -0.788512 C.ar      1 <1>        -0.071500 
     20 CL         -3.611203    6.162054   -1.133832 Cl        1 <1>         0.023800 
     21 C          -2.620971    3.651095   -1.675536 C.ar      1 <1>        -0.088200 
     22 CL         -1.980220    4.271047   -3.179354 Cl        1 <1>         0.019200 
     23 C          -2.411884    2.308500   -1.364274 C.ar      1 <1>        -0.127400 
     24 N          -0.307219    0.612771    0.020717 N.ar      1 <1>        -0.587200 
     25 C           3.998373    2.182118   -0.472979 C.ar      1 <1>        -0.206200 
     26 C           5.381875    2.217197   -0.513883 C.ar      1 <1>        -0.140700 
     27 H           6.009688   -1.030652    0.286842 H         1 <1>         0.157000 
     28 H           3.535235   -1.087564    0.358960 H         1 <1>         0.189200 
     29 H           1.514145    1.960987   -0.356134 H         1 <1>         0.346700 
     30 H           0.513366   -2.991511    0.912773 H         1 <1>         0.153000 
     31 H          -1.893652   -2.260795    0.779574 H         1 <1>         0.164300 
     32 H          -5.563992   -0.908273    0.197973 H         1 <1>         0.348800 
     33 H          -5.168199    0.704908   -0.191107 H         1 <1>         0.326000 
     34 H          -3.999770    2.193002    1.638276 H         1 <1>         0.166500 
     35 H          -4.363376    4.580933    1.086295 H         1 <1>         0.168100 
     36 H          -1.851164    1.691457   -2.055928 H         1 <1>         0.170500 
     37 H           3.433175    3.086393   -0.687181 H         1 <1>         0.137700 
     38 H           5.895286    3.141666   -0.757918 H         1 <1>         0.157300 
@<TRIPOS>BOND
     1   18   35 1    
     2   17   34 1    
     3   17   18 ar   
     4   18   19 ar   
     5   16   17 ar   
     6   19   20 1    
     7   19   21 ar   
     8   26   38 1    
     9   25   37 1    
    10   25   26 ar   
    11   26    3 ar   
    12    6   25 ar   
    13    7   29 1    
    14    2    1 3    
    15    3    2 1    
    16   13   16 1    
    17   16   23 ar   
    18    4    3 ar   
    19    7    6 1    
    20    6    5 ar   
    21    8    7 1    
    22   24    8 ar   
    23   12   24 ar   
    24    5    4 ar   
    25    4   27 1    
    26    5   28 1    
    27    8    9 ar   
    28   13   12 1    
    29   13   14 2    
    30   14   15 1    
    31   15   33 1    
    32   15   32 1    
    33   12   11 ar   
    34    9   10 ar   
    35   11   10 ar   
    36   11   31 1    
    37   10   30 1    
    38   21   23 ar   
    39   21   22 1    
    40   23   36 1    
@<TRIPOS>SUBSTRUCTURE
     1 ****       35 TEMP              0 ****  ****    0 ROOT 
