#	Name:			MXD-2011-CMC-2225-9a
#	Creating user name:	Administrator
#	Creation time:		Sun Jul 05 16:39:25 2020

#	Modifying user name:	Administrator
#	Modification time:	Sun Jul 05 16:40:47 2020

@<TRIPOS>MOLECULE
MXD-2011-CMC-2225-9a
   38    40     1     0     0
SMALL
MULLIKEN_CHARGES
INVALID_CHARGES
Gaussian 16 #p B3LYP/6-31G* opt
@<TRIPOS>ATOM
      1 N           8.718545    1.112730   -0.340309 N.1       1 <1>        -0.487700 
      2 C           7.555044    1.086967   -0.304209 C.1       1 <1>         0.225600 
      3 C           6.125451    1.057660   -0.259957 C.ar      1 <1>         0.129800 
      4 C           5.378764    2.215293   -0.543852 C.ar      1 <1>        -0.141000 
      5 C           3.995549    2.179911   -0.498514 C.ar      1 <1>        -0.206100 
      6 C           3.308974    0.992158   -0.169288 C.ar      1 <1>         0.384100 
      7 N           1.918021    1.057747   -0.147712 N.pl3     1 <1>        -0.769100 
      8 C           0.942619    0.113929    0.117563 C.ar      1 <1>         0.692900 
      9 N           1.282586   -1.142151    0.423673 N.ar      1 <1>        -0.483100 
     10 C           0.248682   -1.967727    0.657763 C.ar      1 <1>         0.063900 
     11 C          -1.076007   -1.575733    0.594768 C.ar      1 <1>        -0.184300 
     12 C          -1.318256   -0.227187    0.262492 C.ar      1 <1>         0.318400 
     13 C          -2.692920    0.319562    0.156338 C.2       1 <1>         0.163400 
     14 N          -3.649496   -0.529824    0.370545 N.2       1 <1>        -0.303400 
     15 N          -4.939927   -0.149809    0.252514 N.pl3     1 <1>        -0.539900 
     16 C          -2.908476    1.759957   -0.182482 C.ar      1 <1>         0.065600 
     17 C          -2.424491    2.779268    0.652744 C.ar      1 <1>        -0.133100 
     18 C          -2.655573    4.118613    0.343573 C.ar      1 <1>        -0.141000 
     19 C          -3.367922    4.461735   -0.808221 C.ar      1 <1>        -0.123300 
     20 C          -3.851597    3.457396   -1.647568 C.ar      1 <1>        -0.135500 
     21 C          -3.627220    2.115511   -1.335113 C.ar      1 <1>        -0.164100 
     22 N          -0.306082    0.613625    0.025444 N.ar      1 <1>        -0.581200 
     23 C           4.054882   -0.167874    0.114668 C.ar      1 <1>        -0.160800 
     24 C           5.442417   -0.125636    0.067443 C.ar      1 <1>        -0.153800 
     25 H           5.890981    3.137413   -0.798988 H         1 <1>         0.155200 
     26 H           3.428983    3.081454   -0.720411 H         1 <1>         0.134500 
     27 H           1.509322    1.955713   -0.373915 H         1 <1>         0.345800 
     28 H           0.513599   -2.993609    0.907753 H         1 <1>         0.150200 
     29 H          -1.892550   -2.258689    0.785295 H         1 <1>         0.162700 
     30 H          -5.550917   -0.760100    0.779945 H         1 <1>         0.344100 
     31 H          -5.145653    0.844123    0.358124 H         1 <1>         0.325300 
     32 H          -1.860789    2.516699    1.542437 H         1 <1>         0.139900 
     33 H          -2.276676    4.896387    1.001338 H         1 <1>         0.135700 
     34 H          -3.543983    5.506504   -1.049663 H         1 <1>         0.135900 
     35 H          -4.402566    3.716011   -2.547868 H         1 <1>         0.137200 
     36 H          -4.002848    1.335827   -1.992081 H         1 <1>         0.152000 
     37 H           3.535875   -1.081482    0.366192 H         1 <1>         0.189300 
     38 H           6.010613   -1.024111    0.287567 H         1 <1>         0.156100 
@<TRIPOS>BOND
     1   20   35 1    
     2   21   36 1    
     3   21   20 ar   
     4   20   19 ar   
     5   16   21 ar   
     6    4   25 1    
     7    5   26 1    
     8    5    4 ar   
     9    4    3 ar   
    10    2    1 3    
    11    6    5 ar   
    12    3    2 1    
    13   24    3 ar   
    14    7   27 1    
    15    7    6 1    
    16    6   23 ar   
    17   14   15 1    
    18   15   31 1    
    19   15   30 1    
    20    8    7 1    
    21   23   24 ar   
    22   24   38 1    
    23   23   37 1    
    24   22    8 ar   
    25    8    9 ar   
    26   12   22 ar   
    27   19   34 1    
    28   19   18 ar   
    29   13   16 1    
    30   16   17 ar   
    31   13   14 2    
    32    9   10 ar   
    33   13   12 1    
    34   12   11 ar   
    35   10   11 ar   
    36   10   28 1    
    37   11   29 1    
    38   18   17 ar   
    39   18   33 1    
    40   17   32 1    
@<TRIPOS>SUBSTRUCTURE
     1 ****       15 TEMP              0 ****  ****    0 ROOT 
