#	Name:			MXD-2011-CMC-2225-9q
#	Creating user name:	Administrator
#	Creation time:		Sun Jul 05 16:39:27 2020

#	Modifying user name:	Administrator
#	Modification time:	Sun Jul 05 16:40:47 2020

@<TRIPOS>MOLECULE
MXD-2011-CMC-2225-9q
   38    40     1     0     0
SMALL
MULLIKEN_CHARGES
INVALID_CHARGES
Gaussian 16 #p B3LYP/6-31G* opt
@<TRIPOS>ATOM
      1 N           8.716049    1.144903   -0.195228 N.1       1 <1>        -0.487600 
      2 C           7.552175    1.114902   -0.177771 C.1       1 <1>         0.225700 
      3 C           6.122165    1.080747   -0.157077 C.ar      1 <1>         0.129900 
      4 C           5.376577    2.238941   -0.441105 C.ar      1 <1>        -0.140800 
      5 C           3.992810    2.198679   -0.419346 C.ar      1 <1>        -0.205900 
      6 C           3.304791    1.005338   -0.114484 C.ar      1 <1>         0.384700 
      7 N           1.913332    1.066019   -0.118415 N.pl3     1 <1>        -0.769500 
      8 C           0.936817    0.118405    0.126443 C.ar      1 <1>         0.697500 
      9 N           1.276539   -1.136862    0.437079 N.ar      1 <1>        -0.482900 
     10 C           0.244286   -1.967992    0.653481 C.ar      1 <1>         0.065400 
     11 C          -1.081766   -1.582609    0.568299 C.ar      1 <1>        -0.184400 
     12 C          -1.321623   -0.236245    0.232783 C.ar      1 <1>         0.332900 
     13 C          -2.694532    0.304532    0.092996 C.2       1 <1>         0.209000 
     14 N          -3.655861   -0.559096    0.156906 N.2       1 <1>        -0.301700 
     15 N          -4.944796   -0.175377    0.099281 N.pl3     1 <1>        -0.535800 
     16 C          -2.870444    1.775804   -0.096030 C.ar      1 <1>        -0.080600 
     17 C          -3.457818    2.335819   -1.233030 C.ar      1 <1>         0.332900 
     18 F          -3.923178    1.491407   -2.186935 F         1 <1>        -0.294900 
     19 C          -3.613961    3.702101   -1.429082 C.ar      1 <1>        -0.198800 
     20 C          -3.156032    4.569067   -0.437263 C.ar      1 <1>        -0.127900 
     21 C          -2.565262    4.068754    0.723938 C.ar      1 <1>        -0.203700 
     22 C          -2.436957    2.693650    0.868920 C.ar      1 <1>         0.381000 
     23 F          -1.881126    2.214970    1.995067 F         1 <1>        -0.281000 
     24 N          -0.312441    0.610969    0.011210 N.ar      1 <1>        -0.586700 
     25 C           4.049678   -0.155130    0.170204 C.ar      1 <1>        -0.160400 
     26 C           5.437756   -0.107997    0.146670 C.ar      1 <1>        -0.153700 
     27 H           5.889880    3.165439   -0.677672 H         1 <1>         0.155100 
     28 H           3.427149    3.100853   -0.641004 H         1 <1>         0.133600 
     29 H           1.506858    1.966304   -0.338876 H         1 <1>         0.344200 
     30 H           0.510184   -2.991961    0.909862 H         1 <1>         0.151100 
     31 H          -1.898385   -2.268141    0.749193 H         1 <1>         0.163200 
     32 H          -5.163371    0.672272   -0.418903 H         1 <1>         0.332500 
     33 H          -5.545734   -0.954594   -0.136079 H         1 <1>         0.347600 
     34 H          -4.078955    4.060652   -2.340674 H         1 <1>         0.155000 
     35 H          -3.265599    5.641415   -0.567062 H         1 <1>         0.153200 
     36 H          -2.208781    4.720376    1.514032 H         1 <1>         0.155700 
     37 H           3.529724   -1.072633    0.404815 H         1 <1>         0.189500 
     38 H           6.005015   -1.006796    0.367398 H         1 <1>         0.156300 
@<TRIPOS>BOND
     1   22   23 1    
     2   21   36 1    
     3   22   21 ar   
     4   21   20 ar   
     5   16   22 ar   
     6   10   30 1    
     7   11   31 1    
     8   10   11 ar   
     9    9   10 ar   
    10   20   35 1    
    11   12   11 ar   
    12   20   19 ar   
    13    8    9 ar   
    14   25   37 1    
    15   12   13 1    
    16   24   12 ar   
    17   13   16 1    
    18   16   17 ar   
    19   26   38 1    
    20   13   14 2    
    21    8   24 ar   
    22    7    8 1    
    23   25   26 ar   
    24    6   25 ar   
    25   26    3 ar   
    26   14   15 1    
    27   15   33 1    
    28   15   32 1    
    29    7    6 1    
    30    7   29 1    
    31    6    5 ar   
    32    3    2 1    
    33    3    4 ar   
    34    2    1 3    
    35    5    4 ar   
    36    5   28 1    
    37    4   27 1    
    38   19   17 ar   
    39   19   34 1    
    40   17   18 1    
@<TRIPOS>SUBSTRUCTURE
     1 ****       36 TEMP              0 ****  ****    0 ROOT 
