#	Name:			MXD-2011-CMC-2225-9l
#	Creating user name:	Administrator
#	Creation time:		Sun Jul 05 16:39:26 2020

#	Modifying user name:	Administrator
#	Modification time:	Sun Jul 05 16:40:47 2020

@<TRIPOS>MOLECULE
MXD-2011-CMC-2225-9l
   38    40     1     0     0
SMALL
MULLIKEN_CHARGES
INVALID_CHARGES
Gaussian 16 #p B3LYP/6-31G* opt
@<TRIPOS>ATOM
      1 N           8.718748    1.105881   -0.345470 N.1       1 <1>        -0.486700 
      2 C           7.555305    1.081784   -0.307051 C.1       1 <1>         0.226300 
      3 C           6.125691    1.054084   -0.260769 C.ar      1 <1>         0.130300 
      4 C           5.441691   -0.134775    0.043104 C.ar      1 <1>        -0.153600 
      5 C           4.054073   -0.176097    0.090886 C.ar      1 <1>        -0.160600 
      6 C           3.309821    0.990539   -0.168643 C.ar      1 <1>         0.383500 
      7 N           1.918033    1.056905   -0.149283 N.pl3     1 <1>        -0.768900 
      8 C           0.942613    0.113894    0.113844 C.ar      1 <1>         0.694300 
      9 N           1.281477   -1.142297    0.421519 N.ar      1 <1>        -0.482100 
     10 C           0.248354   -1.966907    0.659973 C.ar      1 <1>         0.064600 
     11 C          -1.076807   -1.574731    0.598911 C.ar      1 <1>        -0.184500 
     12 C          -1.318145   -0.226908    0.265467 C.ar      1 <1>         0.320000 
     13 C          -2.692953    0.323129    0.172337 C.2       1 <1>         0.163900 
     14 N          -3.649532   -0.511364    0.436955 N.2       1 <1>        -0.301900 
     15 N          -4.936940   -0.105831    0.427178 N.pl3     1 <1>        -0.540000 
     16 C          -2.905382    1.755753   -0.197539 C.ar      1 <1>         0.069800 
     17 C          -3.582699    2.620882    0.675923 C.ar      1 <1>        -0.164900 
     18 C          -3.803336    3.956911    0.339193 C.ar      1 <1>        -0.154700 
     19 C          -3.347251    4.429919   -0.888747 C.ar      1 <1>         0.087400 
     20 BR         -3.648654    6.256276   -1.363831 Br        1 <1>        -0.122000 
     21 C          -2.674775    3.592545   -1.778415 C.ar      1 <1>        -0.160400 
     22 C          -2.454698    2.262738   -1.426448 C.ar      1 <1>        -0.131600 
     23 N          -0.307024    0.613184    0.022619 N.ar      1 <1>        -0.584400 
     24 C           3.997255    2.184046   -0.473271 C.ar      1 <1>        -0.206200 
     25 C           5.380611    2.218455   -0.519243 C.ar      1 <1>        -0.140800 
     26 H           6.008830   -1.038164    0.244396 H         1 <1>         0.156800 
     27 H           3.534456   -1.093667    0.326246 H         1 <1>         0.189300 
     28 H           1.512039    1.961565   -0.352081 H         1 <1>         0.345700 
     29 H           0.513499   -2.992304    0.911648 H         1 <1>         0.151800 
     30 H          -1.892854   -2.256146    0.797046 H         1 <1>         0.163600 
     31 H          -5.165988    0.715237   -0.133716 H         1 <1>         0.325500 
     32 H          -5.566087   -0.887398    0.295141 H         1 <1>         0.346600 
     33 H          -3.934330    2.249743    1.634361 H         1 <1>         0.162300 
     34 H          -4.320109    4.620887    1.023597 H         1 <1>         0.160500 
     35 H          -2.326849    3.976586   -2.731174 H         1 <1>         0.158900 
     36 H          -1.921317    1.612079   -2.111525 H         1 <1>         0.150300 
     37 H           3.431874    3.091205   -0.674503 H         1 <1>         0.135700 
     38 H           5.893690    3.145252   -0.754878 H         1 <1>         0.156400 
@<TRIPOS>BOND
     1   22   36 1    
     2   21   35 1    
     3   22   21 ar   
     4   21   19 ar   
     5   16   22 ar   
     6   15   32 1    
     7   15   31 1    
     8   11   30 1    
     9   10   29 1    
    10   10   11 ar   
    11   12   11 ar   
    12    9   10 ar   
    13   12   13 1    
    14   23   12 ar   
    15   13   14 2    
    16   13   16 1    
    17    8    9 ar   
    18    5   27 1    
    19   14   15 1    
    20   16   17 ar   
    21    8   23 ar   
    22    7    8 1    
    23   19   20 1    
    24   19   18 ar   
    25    4   26 1    
    26    5    4 ar   
    27    6    5 ar   
    28    7    6 1    
    29    7   28 1    
    30    4    3 ar   
    31    6   24 ar   
    32    3    2 1    
    33    3   25 ar   
    34   24   25 ar   
    35   24   37 1    
    36    2    1 3    
    37   25   38 1    
    38   17   18 ar   
    39   17   33 1    
    40   18   34 1    
@<TRIPOS>SUBSTRUCTURE
     1 ****       30 TEMP              0 ****  ****    0 ROOT 
