#	Name:			MXD-2011-CMC-2225-9j
#	Creating user name:	Administrator
#	Creation time:		Sun Jul 05 16:39:26 2020

#	Modifying user name:	Administrator
#	Modification time:	Sun Jul 05 16:40:47 2020

@<TRIPOS>MOLECULE
MXD-2011-CMC-2225-9j
   38    40     1     0     0
SMALL
MULLIKEN_CHARGES
INVALID_CHARGES
Gaussian 16 #p B3LYP/6-31G* opt
@<TRIPOS>ATOM
      1 N           8.946293   -0.596401    0.501338 N.1       1 <1>        -0.487400 
      2 C           7.804912   -0.378117    0.428082 C.1       1 <1>         0.225800 
      3 C           6.402963   -0.108072    0.338138 C.ar      1 <1>         0.129900 
      4 C           5.462002   -1.133346    0.529996 C.ar      1 <1>        -0.153600 
      5 C           4.097896   -0.885193    0.445999 C.ar      1 <1>        -0.160800 
      6 C           3.638628    0.415609    0.163723 C.ar      1 <1>         0.384200 
      7 N           2.296113    0.772337    0.058841 N.pl3     1 <1>        -0.768100 
      8 C           1.123026    0.051637    0.180151 C.ar      1 <1>         0.691600 
      9 N           1.167720   -1.262898    0.450564 N.ar      1 <1>        -0.478800 
     10 C          -0.026252   -1.858604    0.540630 C.ar      1 <1>         0.069000 
     11 C          -1.231883   -1.190543    0.374808 C.ar      1 <1>        -0.215900 
     12 C          -1.160120    0.188473    0.099040 C.ar      1 <1>         0.320200 
     13 C          -2.387642    0.998317   -0.112246 C.2       1 <1>         0.161200 
     14 N          -2.229736    2.158384   -0.667717 N.2       1 <1>        -0.263300 
     15 N          -3.300779    2.933711   -0.933641 N.pl3     1 <1>        -0.542000 
     16 C          -3.715688    0.448278    0.307413 C.ar      1 <1>         0.024000 
     17 C          -4.735739    0.232518   -0.633713 C.ar      1 <1>        -0.158600 
     18 C          -5.978377   -0.268896   -0.247027 C.ar      1 <1>        -0.133800 
     19 C          -6.207399   -0.554573    1.098570 C.ar      1 <1>        -0.062400 
     20 CL         -7.769664   -1.184422    1.594756 Cl        1 <1>        -0.010200 
     21 C          -5.215245   -0.346966    2.056754 C.ar      1 <1>        -0.134200 
     22 C          -3.977339    0.152069    1.654967 C.ar      1 <1>        -0.151700 
     23 N           0.024894    0.805025    0.008647 N.ar      1 <1>        -0.545900 
     24 C           4.584304    1.444486   -0.029263 C.ar      1 <1>        -0.205700 
     25 C           5.942713    1.190530    0.055733 C.ar      1 <1>        -0.140800 
     26 H           5.808042   -2.138945    0.748026 H         1 <1>         0.156100 
     27 H           3.380367   -1.679133    0.594434 H         1 <1>         0.187900 
     28 H           2.106882    1.744635   -0.150516 H         1 <1>         0.347900 
     29 H          -0.008474   -2.926298    0.753268 H         1 <1>         0.152100 
     30 H          -2.176491   -1.714653    0.442301 H         1 <1>         0.154000 
     31 H          -3.032125    3.902559   -1.046326 H         1 <1>         0.347600 
     32 H          -4.142821    2.794058   -0.374338 H         1 <1>         0.321600 
     33 H          -4.553435    0.454583   -1.681224 H         1 <1>         0.165500 
     34 H          -6.758897   -0.440199   -0.980554 H         1 <1>         0.164300 
     35 H          -5.410316   -0.571819    3.099983 H         1 <1>         0.164100 
     36 H          -3.202141    0.312662    2.399153 H         1 <1>         0.154900 
     37 H           4.240588    2.452857   -0.248377 H         1 <1>         0.135700 
     38 H           6.656408    1.993963   -0.095551 H         1 <1>         0.155800 
@<TRIPOS>BOND
     1   21   35 1    
     2   22   36 1    
     3   22   21 ar   
     4   21   19 ar   
     5   16   22 ar   
     6   25   38 1    
     7   24   37 1    
     8   24   25 ar   
     9   25    3 ar   
    10    6   24 ar   
    11   15   32 1    
    12    7   28 1    
    13   19   20 1    
    14   15   31 1    
    15   19   18 ar   
    16    2    1 3    
    17    3    2 1    
    18    3    4 ar   
    19    7    6 1    
    20    8    7 1    
    21    6    5 ar   
    22   23    8 ar   
    23   12   23 ar   
    24   13   16 1    
    25   16   17 ar   
    26   14   15 1    
    27   13   14 2    
    28   13   12 1    
    29    8    9 ar   
    30    4    5 ar   
    31    4   26 1    
    32    5   27 1    
    33   12   11 ar   
    34    9   10 ar   
    35   11   10 ar   
    36   11   30 1    
    37   10   29 1    
    38   18   17 ar   
    39   18   34 1    
    40   17   33 1    
@<TRIPOS>SUBSTRUCTURE
     1 ****       32 TEMP              0 ****  ****    0 ROOT 
