#	Name:			MXD-2011-CMC-2225-9f
#	Creating user name:	Administrator
#	Creation time:		Sun Jul 05 16:39:26 2020

#	Modifying user name:	Administrator
#	Modification time:	Sun Jul 05 16:40:47 2020

@<TRIPOS>MOLECULE
MXD-2011-CMC-2225-9f
   38    40     1     0     0
SMALL
MULLIKEN_CHARGES
INVALID_CHARGES
Gaussian 16 #p B3LYP/6-31G* opt
@<TRIPOS>ATOM
      1 N           8.946739   -0.600929    0.488661 N.1       1 <1>        -0.487700 
      2 C           7.805322   -0.381984    0.416980 C.1       1 <1>         0.225700 
      3 C           6.403384   -0.111138    0.329182 C.ar      1 <1>         0.129800 
      4 C           5.462046   -1.135482    0.524552 C.ar      1 <1>        -0.153700 
      5 C           4.097964   -0.886517    0.442769 C.ar      1 <1>        -0.160900 
      6 C           3.639012    0.414149    0.159146 C.ar      1 <1>         0.384400 
      7 N           2.296663    0.771571    0.056658 N.pl3     1 <1>        -0.768300 
      8 C           1.123222    0.051240    0.179451 C.ar      1 <1>         0.691400 
      9 N           1.167665   -1.263377    0.449211 N.ar      1 <1>        -0.479200 
     10 C          -0.026742   -1.858204    0.540610 C.ar      1 <1>         0.068600 
     11 C          -1.232129   -1.189332    0.376937 C.ar      1 <1>        -0.214600 
     12 C          -1.160084    0.189771    0.101959 C.ar      1 <1>         0.320800 
     13 C          -2.386869    1.000286   -0.107751 C.2       1 <1>         0.163800 
     14 N          -2.227903    2.166781   -0.649353 N.2       1 <1>        -0.263400 
     15 N          -3.296784    2.942354   -0.916941 N.pl3     1 <1>        -0.540600 
     16 C          -3.717018    0.444809    0.301001 C.ar      1 <1>         0.020400 
     17 C          -3.985414    0.145817    1.647165 C.ar      1 <1>        -0.154700 
     18 C          -5.230566   -0.356382    2.027377 C.ar      1 <1>        -0.134900 
     19 C          -6.230666   -0.569441    1.077469 C.ar      1 <1>        -0.191800 
     20 C          -5.952292   -0.266864   -0.250560 C.ar      1 <1>         0.385100 
     21 F          -6.908058   -0.469189   -1.179983 F         1 <1>        -0.292900 
     22 C          -4.722261    0.236324   -0.657020 C.ar      1 <1>        -0.235500 
     23 N           0.025458    0.805257    0.009771 N.ar      1 <1>        -0.546500 
     24 C           4.585167    1.442161   -0.037440 C.ar      1 <1>        -0.205800 
     25 C           5.943480    1.187324    0.045356 C.ar      1 <1>        -0.140900 
     26 H           5.807789   -2.140865    0.743631 H         1 <1>         0.155800 
     27 H           3.380097   -1.679562    0.593710 H         1 <1>         0.187800 
     28 H           2.107384    1.743769   -0.152944 H         1 <1>         0.347800 
     29 H          -0.009422   -2.926095    0.752637 H         1 <1>         0.151300 
     30 H          -2.177111   -1.712257    0.446920 H         1 <1>         0.154200 
     31 H          -3.031283    3.913251   -1.018182 H         1 <1>         0.347700 
     32 H          -4.148648    2.791030   -0.376021 H         1 <1>         0.322700 
     33 H          -3.213585    0.306563    2.394003 H         1 <1>         0.148400 
     34 H          -5.426486   -0.583340    3.071486 H         1 <1>         0.148900 
     35 H          -7.206496   -0.959937    1.346611 H         1 <1>         0.155500 
     36 H          -4.553986    0.454346   -1.706592 H         1 <1>         0.170200 
     37 H           4.241715    2.450235   -0.257687 H         1 <1>         0.135600 
     38 H           6.657446    1.990017   -0.108718 H         1 <1>         0.155600 
@<TRIPOS>BOND
     1   22   36 1    
     2   20   21 1    
     3   22   20 ar   
     4   16   22 ar   
     5   10   29 1    
     6   20   19 ar   
     7   11   30 1    
     8   11   10 ar   
     9   10    9 ar   
    10    4   26 1    
    11    5   27 1    
    12   12   11 ar   
    13    8    9 ar   
    14    5    4 ar   
    15    4    3 ar   
    16    6    5 ar   
    17    2    1 3    
    18   13   12 1    
    19   12   23 ar   
    20   23    8 ar   
    21    8    7 1    
    22    3    2 1    
    23   14   15 1    
    24   13   14 2    
    25    3   25 ar   
    26   15   31 1    
    27   15   32 1    
    28    7    6 1    
    29    6   24 ar   
    30   13   16 1    
    31    7   28 1    
    32   25   24 ar   
    33   25   38 1    
    34   24   37 1    
    35   16   17 ar   
    36   19   35 1    
    37   19   18 ar   
    38   17   18 ar   
    39   17   33 1    
    40   18   34 1    
@<TRIPOS>SUBSTRUCTURE
     1 ****        1 TEMP              0 ****  ****    0 ROOT 
