#	Name:			MXD-2011-CMC-2225-9g
#	Creating user name:	Administrator
#	Creation time:		Sun Jul 05 16:39:26 2020

#	Modifying user name:	Administrator
#	Modification time:	Sun Jul 05 16:40:47 2020

@<TRIPOS>MOLECULE
MXD-2011-CMC-2225-9g
   38    40     1     0     0
SMALL
MULLIKEN_CHARGES
INVALID_CHARGES
Gaussian 16 #p B3LYP/6-31G* opt
@<TRIPOS>ATOM
      1 N           8.940244   -0.710879   -0.073927 N.1       1 <1>        -0.487700 
      2 C           7.799776   -0.476157   -0.064465 C.1       1 <1>         0.225600 
      3 C           6.399097   -0.185981   -0.053556 C.ar      1 <1>         0.129800 
      4 C           5.458085   -1.203994    0.174364 C.ar      1 <1>        -0.153700 
      5 C           4.095131   -0.936561    0.187158 C.ar      1 <1>        -0.160900 
      6 C           3.636811    0.376777   -0.031583 C.ar      1 <1>         0.384400 
      7 N           2.295669    0.752318   -0.041054 N.pl3     1 <1>        -0.768200 
      8 C           1.122850    0.044196    0.144016 C.ar      1 <1>         0.691100 
      9 N           1.167168   -1.275036    0.390038 N.ar      1 <1>        -0.479200 
     10 C          -0.026416   -1.855067    0.557048 C.ar      1 <1>         0.068700 
     11 C          -1.230630   -1.168499    0.483154 C.ar      1 <1>        -0.215500 
     12 C          -1.158778    0.212217    0.215502 C.ar      1 <1>         0.320600 
     13 C          -2.384945    1.046396    0.129764 C.2       1 <1>         0.160100 
     14 N          -2.218419    2.330093    0.192319 N.2       1 <1>        -0.264500 
     15 N          -3.288789    3.151326    0.167047 N.pl3     1 <1>        -0.542000 
     16 C          -3.720737    0.384039   -0.011668 C.ar      1 <1>         0.020700 
     17 C          -4.709349    0.541089    0.975160 C.ar      1 <1>        -0.161600 
     18 C          -5.958482   -0.064822    0.845094 C.ar      1 <1>        -0.200000 
     19 C          -6.214141   -0.830231   -0.287158 C.ar      1 <1>         0.386100 
     20 F          -7.418926   -1.418263   -0.420017 F         1 <1>        -0.290700 
     21 C          -5.264101   -1.006384   -1.287509 C.ar      1 <1>        -0.200400 
     22 C          -4.019614   -0.395730   -1.141910 C.ar      1 <1>        -0.155800 
     23 N           0.025985    0.811458    0.041048 N.ar      1 <1>        -0.546100 
     24 C           4.582553    1.398570   -0.259858 C.ar      1 <1>        -0.205800 
     25 C           5.939758    1.125431   -0.271263 C.ar      1 <1>        -0.140900 
     26 H           5.803351   -2.219093    0.343726 H         1 <1>         0.155800 
     27 H           3.377586   -1.724726    0.363654 H         1 <1>         0.187800 
     28 H           2.106752    1.732473   -0.210376 H         1 <1>         0.347700 
     29 H          -0.009053   -2.924017    0.763542 H         1 <1>         0.151200 
     30 H          -2.174695   -1.674595    0.637857 H         1 <1>         0.153500 
     31 H          -4.141961    2.807007   -0.274733 H         1 <1>         0.320500 
     32 H          -3.024241    4.087098   -0.112479 H         1 <1>         0.346300 
     33 H          -4.495001    1.140623    1.854996 H         1 <1>         0.164400 
     34 H          -6.726058    0.043843    1.604269 H         1 <1>         0.157000 
     35 H          -5.505232   -1.609469   -2.156597 H         1 <1>         0.156800 
     36 H          -3.267535   -0.527160   -1.914798 H         1 <1>         0.153900 
     37 H           4.239610    2.416657   -0.429313 H         1 <1>         0.135600 
     38 H           6.653380    1.923552   -0.448466 H         1 <1>         0.155500 
@<TRIPOS>BOND
     1   21   35 1    
     2   22   36 1    
     3   22   21 ar   
     4   21   19 ar   
     5   16   22 ar   
     6   25   38 1    
     7   24   37 1    
     8   15   31 1    
     9   24   25 ar   
    10   25    3 ar   
    11   19   20 1    
    12    6   24 ar   
    13    7   28 1    
    14   19   18 ar   
    15   15   32 1    
    16    2    1 3    
    17    3    2 1    
    18    3    4 ar   
    19    7    6 1    
    20    8    7 1    
    21    6    5 ar   
    22   13   16 1    
    23   16   17 ar   
    24   23    8 ar   
    25   12   23 ar   
    26   14   15 1    
    27   13   14 2    
    28   13   12 1    
    29    8    9 ar   
    30    4    5 ar   
    31    4   26 1    
    32    5   27 1    
    33   12   11 ar   
    34    9   10 ar   
    35   11   10 ar   
    36   11   30 1    
    37   10   29 1    
    38   18   17 ar   
    39   18   34 1    
    40   17   33 1    
@<TRIPOS>SUBSTRUCTURE
     1 ****       35 TEMP              0 ****  ****    0 ROOT 
