#	Name:			MXD-2011-CMC-2225-9s
#	Creating user name:	Administrator
#	Creation time:		Sun Jul 05 16:39:27 2020

#	Modifying user name:	Administrator
#	Modification time:	Sun Jul 05 16:40:47 2020

@<TRIPOS>MOLECULE
MXD-2011-CMC-2225-9s
   44    47     1     0     0
SMALL
MULLIKEN_CHARGES
INVALID_CHARGES
Gaussian 16 #p B3LYP/6-31G* opt
@<TRIPOS>ATOM
      1 N           8.948415   -0.677113    0.313037 N.1       1 <1>        -0.488600 
      2 C           7.807952   -0.446900    0.266078 C.1       1 <1>         0.225100 
      3 C           6.407123   -0.162906    0.208485 C.ar      1 <1>         0.129400 
      4 C           5.953220    1.141857   -0.055990 C.ar      1 <1>        -0.141100 
      5 C           4.596011    1.409475   -0.109843 C.ar      1 <1>        -0.206000 
      6 C           3.644210    0.388563    0.097624 C.ar      1 <1>         0.384700 
      7 N           2.304004    0.758096    0.024330 N.pl3     1 <1>        -0.768800 
      8 C           1.125859    0.047239    0.167697 C.ar      1 <1>         0.691000 
      9 N           1.164751   -1.269321    0.427984 N.ar      1 <1>        -0.480500 
     10 C          -0.033390   -1.853190    0.544043 C.ar      1 <1>         0.068000 
     11 C          -1.235456   -1.172418    0.411885 C.ar      1 <1>        -0.213500 
     12 C          -1.156917    0.207444    0.140310 C.ar      1 <1>         0.332500 
     13 C          -2.382274    1.024918   -0.023544 C.2       1 <1>         0.140800 
     14 N          -2.227456    2.270781   -0.348244 N.2       1 <1>        -0.262500 
     15 N          -3.314831    3.034102   -0.564547 N.pl3     1 <1>        -0.536200 
     16 C          -3.729360    0.397832    0.194543 C.ar      1 <1>        -0.046700 
     17 C          -4.222810    0.265685    1.481024 C.ar      1 <1>        -0.172700 
     18 C          -5.495900   -0.301833    1.726070 C.ar      1 <1>        -0.139300 
     19 C          -6.270927   -0.735596    0.676095 C.ar      1 <1>        -0.183100 
     20 C          -5.812824   -0.617612   -0.663543 C.ar      1 <1>         0.127400 
     21 C          -6.599435   -1.058711   -1.761829 C.ar      1 <1>        -0.193900 
     22 C          -6.141575   -0.934871   -3.053426 C.ar      1 <1>        -0.130300 
     23 C          -4.872032   -0.360913   -3.304529 C.ar      1 <1>        -0.134800 
     24 C          -4.083568    0.076418   -2.263989 C.ar      1 <1>        -0.188200 
     25 C          -4.524852   -0.038451   -0.917262 C.ar      1 <1>         0.113800 
     26 N           0.032952    0.811420    0.020600 N.ar      1 <1>        -0.551800 
     27 C           4.097302   -0.918405    0.362148 C.ar      1 <1>        -0.161100 
     28 C           5.460259   -1.180127    0.414746 C.ar      1 <1>        -0.153800 
     29 H           6.671239    1.939313   -0.218179 H         1 <1>         0.154800 
     30 H           4.257387    2.422350   -0.315511 H         1 <1>         0.135100 
     31 H           2.118658    1.733973   -0.171259 H         1 <1>         0.347300 
     32 H          -0.021312   -2.921807    0.752645 H         1 <1>         0.150100 
     33 H          -2.184451   -1.683329    0.509785 H         1 <1>         0.155800 
     34 H          -4.192921    2.751848   -0.128839 H         1 <1>         0.324200 
     35 H          -3.102069    4.019734   -0.491127 H         1 <1>         0.345700 
     36 H          -3.615546    0.597264    2.319532 H         1 <1>         0.143400 
     37 H          -5.853003   -0.394269    2.747946 H         1 <1>         0.138600 
     38 H          -7.248846   -1.175538    0.857016 H         1 <1>         0.136900 
     39 H          -7.573854   -1.497845   -1.561312 H         1 <1>         0.134500 
     40 H          -6.752660   -1.276110   -3.884459 H         1 <1>         0.136300 
     41 H          -4.518828   -0.264855   -4.327610 H         1 <1>         0.138200 
     42 H          -3.113341    0.521055   -2.462564 H         1 <1>         0.156500 
     43 H           3.374980   -1.706068    0.521063 H         1 <1>         0.187800 
     44 H           5.801207   -2.190381    0.619225 H         1 <1>         0.155100 
@<TRIPOS>BOND
     1   18   37 1    
     2   17   36 1    
     3   17   18 ar   
     4   18   19 ar   
     5   16   17 ar   
     6   19   38 1    
     7   19   20 ar   
     8   15   34 1    
     9   13   16 1    
    10   16   25 ar   
    11   11   33 1    
    12   15   35 1    
    13   12   11 ar   
    14   10   11 ar   
    15   12   13 1    
    16   13   14 2    
    17   10   32 1    
    18   26   12 ar   
    19    9   10 ar   
    20   14   15 1    
    21    8   26 ar   
    22    8    9 ar   
    23    7    8 1    
    24   27   43 1    
    25    7   31 1    
    26    6    7 1    
    27   27    6 ar   
    28   27   28 ar   
    29    6    5 ar   
    30   20   25 ar   
    31   20   21 ar   
    32   28   44 1    
    33   28    3 ar   
    34    5   30 1    
    35    5    4 ar   
    36    3    4 ar   
    37    3    2 1    
    38    4   29 1    
    39   25   24 ar   
    40    2    1 3    
    41   21   39 1    
    42   21   22 ar   
    43   24   42 1    
    44   24   23 ar   
    45   22   23 ar   
    46   22   40 1    
    47   23   41 1    
@<TRIPOS>SUBSTRUCTURE
     1 ****       43 TEMP              0 ****  ****    0 ROOT 
