#	Name:			MXD-2011-CMC-2225-9o
#	Creating user name:	Administrator
#	Creation time:		Sun Jul 05 16:39:26 2020

#	Modifying user name:	Administrator
#	Modification time:	Sun Jul 05 16:40:47 2020

@<TRIPOS>MOLECULE
MXD-2011-CMC-2225-9o
   38    40     1     0     0
SMALL
MULLIKEN_CHARGES
INVALID_CHARGES
Gaussian 16 #p B3LYP/6-31G* opt
@<TRIPOS>ATOM
      1 N           8.708950    1.121677   -0.353103 N.1       1 <1>        -0.486900 
      2 C           7.545615    1.095476   -0.313866 C.1       1 <1>         0.226200 
      3 C           6.116082    1.065155   -0.266359 C.ar      1 <1>         0.130300 
      4 C           5.434665   -0.123118    0.045347 C.ar      1 <1>        -0.153600 
      5 C           4.047068   -0.166875    0.094539 C.ar      1 <1>        -0.160300 
      6 C           3.300388    0.996748   -0.171397 C.ar      1 <1>         0.383900 
      7 N           1.908509    1.061001   -0.150013 N.pl3     1 <1>        -0.769200 
      8 C           0.935031    0.116837    0.113915 C.ar      1 <1>         0.697900 
      9 N           1.276680   -1.139757    0.419265 N.ar      1 <1>        -0.481900 
     10 C           0.247525   -1.968160    0.658847 C.ar      1 <1>         0.065700 
     11 C          -1.079449   -1.579409    0.603080 C.ar      1 <1>        -0.186100 
     12 C          -1.321019   -0.233195    0.269089 C.ar      1 <1>         0.342600 
     13 C          -2.688685    0.320554    0.168406 C.2       1 <1>         0.146700 
     14 N          -3.671544   -0.496936    0.367260 N.2       1 <1>        -0.288700 
     15 N          -4.943536   -0.071557    0.228855 N.pl3     1 <1>        -0.537100 
     16 C          -2.872677    1.761722   -0.197094 C.ar      1 <1>         0.063600 
     17 C          -3.216372    2.105598   -1.513238 C.ar      1 <1>        -0.134400 
     18 C          -3.405174    3.429338   -1.902727 C.ar      1 <1>        -0.135100 
     19 C          -3.253676    4.436967   -0.951238 C.ar      1 <1>        -0.057700 
     20 CL         -3.484026    6.112631   -1.416263 Cl        1 <1>        -0.001500 
     21 C          -2.926111    4.140387    0.370049 C.ar      1 <1>        -0.142500 
     22 C          -2.743785    2.805444    0.730804 C.ar      1 <1>        -0.090200 
     23 CL         -2.349180    2.454353    2.405111 Cl        1 <1>         0.011900 
     24 N          -0.315748    0.612427    0.022352 N.ar      1 <1>        -0.584900 
     25 C           3.985145    2.189619   -0.484044 C.ar      1 <1>        -0.205900 
     26 C           5.368445    2.226458   -0.531501 C.ar      1 <1>        -0.140800 
     27 H           6.003740   -1.024226    0.251608 H         1 <1>         0.156700 
     28 H           3.529542   -1.084140    0.335351 H         1 <1>         0.189300 
     29 H           1.500929    1.963507   -0.358769 H         1 <1>         0.345900 
     30 H           0.516595   -2.993073    0.908075 H         1 <1>         0.152200 
     31 H          -1.894277   -2.262598    0.801455 H         1 <1>         0.163300 
     32 H          -5.590725   -0.669936    0.725267 H         1 <1>         0.348900 
     33 H          -5.122345    0.925666    0.344044 H         1 <1>         0.326800 
     34 H          -3.328398    1.312205   -2.246335 H         1 <1>         0.164300 
     35 H          -3.662930    3.677047   -2.926383 H         1 <1>         0.167000 
     36 H          -2.815746    4.928471    1.105214 H         1 <1>         0.182000 
     37 H           3.417917    3.094218   -0.690748 H         1 <1>         0.135500 
     38 H           5.879564    3.152741   -0.773645 H         1 <1>         0.156200 
@<TRIPOS>BOND
     1   18   35 1    
     2   17   34 1    
     3   17   18 ar   
     4   18   19 ar   
     5   16   17 ar   
     6   14   15 1    
     7   15   32 1    
     8   15   33 1    
     9   13   14 2    
    10   19   20 1    
    11   19   21 ar   
    12   11   31 1    
    13   13   16 1    
    14   12   13 1    
    15   16   22 ar   
    16   12   11 ar   
    17   10   11 ar   
    18   24   12 ar   
    19   10   30 1    
    20    9   10 ar   
    21    8   24 ar   
    22    8    9 ar   
    23    7    8 1    
    24    7   29 1    
    25    6    7 1    
    26    5   28 1    
    27    5    6 ar   
    28    5    4 ar   
    29    6   25 ar   
    30    4   27 1    
    31    4    3 ar   
    32   25   37 1    
    33   25   26 ar   
    34    3   26 ar   
    35    3    2 1    
    36   26   38 1    
    37    2    1 3    
    38   21   22 ar   
    39   21   36 1    
    40   22   23 1    
@<TRIPOS>SUBSTRUCTURE
     1 ****       28 TEMP              0 ****  ****    0 ROOT 
