#	Name:			MXD-2011-CMC-2225-9r
#	Creating user name:	Administrator
#	Creation time:		Sun Jul 05 16:39:27 2020

#	Modifying user name:	Administrator
#	Modification time:	Sun Jul 05 16:40:47 2020

@<TRIPOS>MOLECULE
MXD-2011-CMC-2225-9r
   38    40     1     0     0
SMALL
MULLIKEN_CHARGES
INVALID_CHARGES
Gaussian 16 #p B3LYP/6-31G* opt
@<TRIPOS>ATOM
      1 N           8.939855   -0.707513   -0.077375 N.1       1 <1>        -0.487100 
      2 C           7.799257   -0.473575   -0.068072 C.1       1 <1>         0.226000 
      3 C           6.398246   -0.184221   -0.057226 C.ar      1 <1>         0.130100 
      4 C           5.938445    1.126935   -0.274941 C.ar      1 <1>        -0.140800 
      5 C           4.581073    1.399540   -0.263220 C.ar      1 <1>        -0.205700 
      6 C           3.636172    0.377176   -0.034771 C.ar      1 <1>         0.384100 
      7 N           2.294425    0.752643   -0.043658 N.pl3     1 <1>        -0.768100 
      8 C           1.122575    0.044588    0.142930 C.ar      1 <1>         0.692000 
      9 N           1.167089   -1.274924    0.388789 N.ar      1 <1>        -0.478400 
     10 C          -0.025409   -1.855577    0.557752 C.ar      1 <1>         0.069600 
     11 C          -1.230326   -1.169354    0.486223 C.ar      1 <1>        -0.214700 
     12 C          -1.158798    0.211021    0.218250 C.ar      1 <1>         0.320000 
     13 C          -2.384614    1.046740    0.136202 C.2       1 <1>         0.161800 
     14 N          -2.219466    2.329455    0.215431 N.2       1 <1>        -0.262000 
     15 N          -3.285087    3.154810    0.195290 N.pl3     1 <1>        -0.541400 
     16 C          -3.719448    0.385716   -0.020171 C.ar      1 <1>         0.022900 
     17 C          -4.721533    0.545538    0.950364 C.ar      1 <1>        -0.162300 
     18 C          -5.969342   -0.062772    0.799408 C.ar      1 <1>        -0.205400 
     19 C          -6.221570   -0.832300   -0.327514 C.ar      1 <1>         0.324000 
     20 F          -7.411361   -1.428063   -0.498325 F         1 <1>        -0.275800 
     21 C          -5.235530   -0.995802   -1.301438 C.ar      1 <1>         0.323700 
     22 F          -5.508187   -1.742348   -2.383598 F         1 <1>        -0.278300 
     23 C          -3.994418   -0.395316   -1.156360 C.ar      1 <1>        -0.232900 
     24 N           0.024673    0.811167    0.041529 N.ar      1 <1>        -0.545700 
     25 C           4.094782   -0.935927    0.183473 C.ar      1 <1>        -0.160700 
     26 C           5.458016   -1.202710    0.170536 C.ar      1 <1>        -0.153600 
     27 H           6.651689    1.925534   -0.452144 H         1 <1>         0.156000 
     28 H           4.237628    2.417459   -0.432488 H         1 <1>         0.135800 
     29 H           2.105630    1.732683   -0.213146 H         1 <1>         0.347900 
     30 H          -0.007384   -2.924523    0.764193 H         1 <1>         0.152700 
     31 H          -2.173444   -1.676430    0.644120 H         1 <1>         0.152200 
     32 H          -3.016072    4.093864   -0.068230 H         1 <1>         0.348200 
     33 H          -4.140477    2.821505   -0.250351 H         1 <1>         0.320900 
     34 H          -4.521691    1.145136    1.832868 H         1 <1>         0.166800 
     35 H          -6.749512    0.046619    1.545720 H         1 <1>         0.165200 
     36 H          -3.249164   -0.544019   -1.931123 H         1 <1>         0.168700 
     37 H           3.377917   -1.724623    0.360003 H         1 <1>         0.188000 
     38 H           5.803724   -2.217716    0.339685 H         1 <1>         0.156300 
@<TRIPOS>BOND
     1   17   34 1    
     2   18   35 1    
     3   10   30 1    
     4   11   31 1    
     5   17   18 ar   
     6   16   17 ar   
     7   18   19 ar   
     8   10   11 ar   
     9    9   10 ar   
    10   12   11 ar   
    11    8    9 ar   
    12   25   37 1    
    13   26   38 1    
    14   25   26 ar   
    15    6   25 ar   
    16   26    3 ar   
    17   12   13 1    
    18   24   12 ar   
    19    8   24 ar   
    20    7    8 1    
    21   13   16 1    
    22   16   23 ar   
    23   13   14 2    
    24   19   20 1    
    25   19   21 ar   
    26   14   15 1    
    27    6    7 1    
    28    6    5 ar   
    29    3    2 1    
    30    3    4 ar   
    31    2    1 3    
    32    7   29 1    
    33   15   33 1    
    34   15   32 1    
    35    5    4 ar   
    36    5   28 1    
    37    4   27 1    
    38   21   23 ar   
    39   21   22 1    
    40   23   36 1    
@<TRIPOS>SUBSTRUCTURE
     1 ****       37 TEMP              0 ****  ****    0 ROOT 
