#	Name:			MXD-2011-CMC-2225-9t
#	Creating user name:	Administrator
#	Creation time:		Sun Jul 05 16:39:27 2020

#	Modifying user name:	Administrator
#	Modification time:	Sun Jul 05 16:40:47 2020

@<TRIPOS>MOLECULE
MXD-2011-CMC-2225-9t
   44    47     1     0     0
SMALL
MULLIKEN_CHARGES
INVALID_CHARGES
Gaussian 16 #p B3LYP/6-31G* opt
@<TRIPOS>ATOM
      1 N           8.948543   -0.618729    0.434031 N.1       1 <1>        -0.488500 
      2 C           7.807172   -0.397268    0.370122 C.1       1 <1>         0.225200 
      3 C           6.405430   -0.123216    0.291721 C.ar      1 <1>         0.129400 
      4 C           5.946270    1.176444    0.011757 C.ar      1 <1>        -0.141100 
      5 C           4.588137    1.434373   -0.062071 C.ar      1 <1>        -0.205900 
      6 C           3.640682    0.408488    0.139943 C.ar      1 <1>         0.384700 
      7 N           2.299011    0.768351    0.046554 N.pl3     1 <1>        -0.768400 
      8 C           1.124258    0.049822    0.175926 C.ar      1 <1>         0.690700 
      9 N           1.168327   -1.265258    0.443124 N.ar      1 <1>        -0.480100 
     10 C          -0.027294   -1.857221    0.541978 C.ar      1 <1>         0.068000 
     11 C          -1.232037   -1.185559    0.387535 C.ar      1 <1>        -0.215200 
     12 C          -1.159384    0.194103    0.113409 C.ar      1 <1>         0.324800 
     13 C          -2.385793    1.007155   -0.082779 C.2       1 <1>         0.160600 
     14 N          -2.226537    2.195413   -0.575624 N.2       1 <1>        -0.266600 
     15 N          -3.307194    2.967123   -0.816805 N.pl3     1 <1>        -0.541500 
     16 C          -3.724654    0.434251    0.268529 C.ar      1 <1>         0.014700 
     17 C          -4.688927    0.197432   -0.755418 C.ar      1 <1>        -0.161300 
     18 C          -5.928437   -0.314682   -0.450385 C.ar      1 <1>        -0.196300 
     19 C          -6.288182   -0.616778    0.890754 C.ar      1 <1>         0.138900 
     20 C          -7.559982   -1.145154    1.238569 C.ar      1 <1>        -0.191500 
     21 C          -7.871573   -1.423208    2.550433 C.ar      1 <1>        -0.132600 
     22 C          -6.924430   -1.185411    3.577323 C.ar      1 <1>        -0.135800 
     23 C          -5.683007   -0.674586    3.272990 C.ar      1 <1>        -0.187900 
     24 C          -5.329669   -0.377264    1.928658 C.ar      1 <1>         0.135600 
     25 C          -4.057603    0.149239    1.580979 C.ar      1 <1>        -0.233700 
     26 N           0.027734    0.806379    0.013572 N.ar      1 <1>        -0.548100 
     27 C           4.098893   -0.893459    0.419820 C.ar      1 <1>        -0.161100 
     28 C           5.462785   -1.145504    0.492543 C.ar      1 <1>        -0.153800 
     29 H           6.661026    1.977693   -0.146453 H         1 <1>         0.154900 
     30 H           4.245483    2.443363   -0.279462 H         1 <1>         0.135200 
     31 H           2.109678    1.741208   -0.160004 H         1 <1>         0.347500 
     32 H          -0.011049   -2.925254    0.753048 H         1 <1>         0.150200 
     33 H          -2.178099   -1.705040    0.465836 H         1 <1>         0.155100 
     34 H          -4.151583    2.786380   -0.273398 H         1 <1>         0.323300 
     35 H          -3.053004    3.944460   -0.877849 H         1 <1>         0.345400 
     36 H          -4.428600    0.423780   -1.785310 H         1 <1>         0.153200 
     37 H          -6.652092   -0.498864   -1.240986 H         1 <1>         0.138800 
     38 H          -8.285118   -1.327198    0.448853 H         1 <1>         0.135900 
     39 H          -8.847585   -1.827442    2.804319 H         1 <1>         0.137200 
     40 H          -7.183204   -1.409197    4.608429 H         1 <1>         0.137400 
     41 H          -4.953860   -0.491762    4.058680 H         1 <1>         0.136800 
     42 H          -3.332549    0.325956    2.372456 H         1 <1>         0.143100 
     43 H           3.379943   -1.684955    0.574891 H         1 <1>         0.187800 
     44 H           5.807767   -2.151866    0.708782 H         1 <1>         0.155200 
@<TRIPOS>BOND
     1   23   41 1    
     2   22   40 1    
     3   25   42 1    
     4   23   22 ar   
     5   24   23 ar   
     6   22   21 ar   
     7    5   30 1    
     8   15   35 1    
     9    4   29 1    
    10   15   34 1    
    11   25   24 ar   
    12   16   25 ar   
    13    5    4 ar   
    14    6    5 ar   
    15    4    3 ar   
    16    7   31 1    
    17   24   19 ar   
    18   14   15 1    
    19   13   14 2    
    20   21   39 1    
    21   21   20 ar   
    22    7    6 1    
    23    8    7 1    
    24    6   27 ar   
    25    3    2 1    
    26    3   28 ar   
    27    2    1 3    
    28   26    8 ar   
    29   12   26 ar   
    30   13   16 1    
    31   13   12 1    
    32   16   17 ar   
    33    8    9 ar   
    34   12   11 ar   
    35   27   28 ar   
    36   27   43 1    
    37   28   44 1    
    38   19   20 ar   
    39   19   18 ar   
    40   20   38 1    
    41    9   10 ar   
    42   11   10 ar   
    43   11   33 1    
    44   10   32 1    
    45   17   18 ar   
    46   17   36 1    
    47   18   37 1    
@<TRIPOS>SUBSTRUCTURE
     1 ****       35 TEMP              0 ****  ****    0 ROOT 
