#	Name:			MXD-2011-CMC-2225-9d
#	Creating user name:	Administrator
#	Creation time:		Sun Jul 05 16:39:25 2020

#	Modifying user name:	Administrator
#	Modification time:	Sun Jul 05 16:40:47 2020

@<TRIPOS>MOLECULE
MXD-2011-CMC-2225-9d
   41    43     1     0     0
SMALL
MULLIKEN_CHARGES
INVALID_CHARGES
Gaussian 16 #p B3LYP/6-31G* opt
@<TRIPOS>ATOM
      1 C          -3.640147    5.889782   -1.327593 C.3       1 <1>        -0.531000 
      2 C          -3.375415    4.457524   -0.927103 C.ar      1 <1>         0.183100 
      3 C          -3.813431    3.955526    0.303589 C.ar      1 <1>        -0.188600 
      4 C          -3.591697    2.624943    0.660593 C.ar      1 <1>        -0.164600 
      5 C          -2.912092    1.753485   -0.203559 C.ar      1 <1>         0.064800 
      6 C          -2.692800    0.325044    0.176005 C.2       1 <1>         0.165200 
      7 N          -3.644880   -0.513085    0.448488 N.2       1 <1>        -0.305600 
      8 N          -4.933786   -0.108389    0.442298 N.pl3     1 <1>        -0.540100 
      9 C          -1.317967   -0.224929    0.267763 C.ar      1 <1>         0.317200 
     10 C          -1.075551   -1.573470    0.600500 C.ar      1 <1>        -0.183900 
     11 C           0.248719   -1.967060    0.660211 C.ar      1 <1>         0.063600 
     12 N           1.282980   -1.143219    0.420432 N.ar      1 <1>        -0.483400 
     13 C           0.943102    0.112445    0.113619 C.ar      1 <1>         0.692500 
     14 N           1.918934    1.056213   -0.151782 N.pl3     1 <1>        -0.769100 
     15 C           3.309573    0.990000   -0.175475 C.ar      1 <1>         0.384300 
     16 C           4.054802   -0.176419    0.083958 C.ar      1 <1>        -0.160900 
     17 C           5.442209   -0.135474    0.032031 C.ar      1 <1>        -0.153800 
     18 C           6.125957    1.052640   -0.275794 C.ar      1 <1>         0.129700 
     19 C           7.555269    1.080165   -0.326432 C.1       1 <1>         0.225500 
     20 N           8.718632    1.104583   -0.368629 N.1       1 <1>        -0.488000 
     21 C           5.380068    2.216862   -0.534076 C.ar      1 <1>        -0.141000 
     22 C           3.997007    2.182790   -0.484004 C.ar      1 <1>        -0.206100 
     23 N          -0.305158    0.613515    0.024659 N.ar      1 <1>        -0.581000 
     24 C          -2.466132    2.256320   -1.436443 C.ar      1 <1>        -0.132300 
     25 C          -2.697598    3.582552   -1.789074 C.ar      1 <1>        -0.190700 
     26 H          -3.862397    6.514972   -0.456957 H         1 <1>         0.159800 
     27 H          -2.780141    6.326258   -1.847631 H         1 <1>         0.162100 
     28 H          -4.498120    5.959837   -2.009487 H         1 <1>         0.168000 
     29 H          -4.332476    4.614007    0.996463 H         1 <1>         0.128600 
     30 H          -3.937403    2.262077    1.624800 H         1 <1>         0.150900 
     31 H          -5.560816   -0.890329    0.302001 H         1 <1>         0.343100 
     32 H          -5.159541    0.715767   -0.115993 H         1 <1>         0.324300 
     33 H          -1.892051   -2.254081    0.799417 H         1 <1>         0.162500 
     34 H           0.513136   -2.992697    0.911630 H         1 <1>         0.149700 
     35 H           1.510763    1.959793   -0.355420 H         1 <1>         0.345600 
     36 H           3.535145   -1.093225    0.322243 H         1 <1>         0.189300 
     37 H           6.009626   -1.038737    0.233286 H         1 <1>         0.155900 
     38 H           5.892913    3.143017   -0.772921 H         1 <1>         0.154900 
     39 H           3.431168    3.089612   -0.685161 H         1 <1>         0.134100 
     40 H          -1.927418    1.603594   -2.115976 H         1 <1>         0.138500 
     41 H          -2.341878    3.948657   -2.749884 H         1 <1>         0.127000 
@<TRIPOS>BOND
     1    3   29 1    
     2    4   30 1    
     3    4    3 ar   
     4    3    2 ar   
     5    5    4 ar   
     6    1   26 1    
     7   21   38 1    
     8   22   39 1    
     9   22   21 ar   
    10   21   18 ar   
    11   15   22 ar   
    12   19   20 3    
    13   18   19 1    
    14   17   18 ar   
    15   14   35 1    
    16    7    8 1    
    17    8   32 1    
    18    8   31 1    
    19   14   15 1    
    20   15   16 ar   
    21   13   14 1    
    22   16   17 ar   
    23   17   37 1    
    24   16   36 1    
    25   23   13 ar   
    26    9   23 ar   
    27   13   12 ar   
    28    2    1 1    
    29    2   25 ar   
    30    6    5 1    
    31    5   24 ar   
    32    6    7 2    
    33    6    9 1    
    34    1   27 1    
    35    1   28 1    
    36    9   10 ar   
    37   12   11 ar   
    38   11   10 ar   
    39   11   34 1    
    40   10   33 1    
    41   25   24 ar   
    42   25   41 1    
    43   24   40 1    
@<TRIPOS>SUBSTRUCTURE
     1 ****        8 TEMP              0 ****  ****    0 ROOT 
