#	Name:			WYP-2008-CB-168-6B
#	Creating user name:	Administrator
#	Creation time:		Sun Jul 05 16:40:11 2020

#	Modifying user name:	Administrator
#	Modification time:	Sun Jul 05 16:40:47 2020

@<TRIPOS>MOLECULE
WYP-2008-CB-168-6B
   51    54     1     0     0
SMALL
MULLIKEN_CHARGES
INVALID_CHARGES
Gaussian 16 #p B3LYP/6-31G* opt
@<TRIPOS>ATOM
      1 C          -2.480317   -2.324735    2.644138 C.3       1 <1>        -0.445100 
      2 C          -2.389068   -2.126518    1.119475 C.3       1 <1>        -0.337100 
      3 C          -1.194744   -1.301808    0.703318 C.ar      1 <1>         0.041000 
      4 C          -1.202578    0.049969    0.434934 C.ar      1 <1>         0.257800 
      5 C          -2.463315    0.910493    0.520359 C.3       1 <1>        -0.446700 
      6 C          -3.490980    0.772722   -0.599700 C.ar      1 <1>         0.141800 
      7 C          -4.744960    0.273092   -0.299923 C.ar      1 <1>        -0.213200 
      8 C          -5.755864    0.138158   -1.279969 C.ar      1 <1>        -0.130300 
      9 C          -5.510921    0.518258   -2.576416 C.ar      1 <1>        -0.193200 
     10 C          -4.250786    1.064480   -2.938243 C.ar      1 <1>         0.144200 
     11 C          -3.993352    1.491464   -4.268466 C.ar      1 <1>        -0.197800 
     12 C          -2.782580    2.045197   -4.615279 C.ar      1 <1>        -0.131000 
     13 C          -1.773777    2.195664   -3.636059 C.ar      1 <1>        -0.143000 
     14 C          -1.985369    1.784760   -2.337573 C.ar      1 <1>        -0.202000 
     15 C          -3.222445    1.201815   -1.943695 C.ar      1 <1>         0.062100 
     16 N          -0.076355    0.768272    0.102975 N.ar      1 <1>        -0.586500 
     17 C           1.067543    0.129804    0.046738 C.ar      1 <1>         0.748800 
     18 N           2.206561    0.840835   -0.245744 N.pl3     1 <1>        -0.622100 
     19 C           3.414004    0.243304   -0.811863 C.3       1 <1>        -0.232900 
     20 C           4.265397   -0.519600    0.193600 C.ar      1 <1>         0.119700 
     21 C           4.874286   -1.724616   -0.176740 C.ar      1 <1>        -0.187500 
     22 C           5.695721   -2.411791    0.720196 C.ar      1 <1>        -0.122100 
     23 C           5.911495   -1.900965    1.999782 C.ar      1 <1>        -0.125400 
     24 C           5.301563   -0.702046    2.379212 C.ar      1 <1>        -0.126800 
     25 C           4.483819   -0.015922    1.482839 C.ar      1 <1>        -0.159300 
     26 N           1.174094   -1.203999    0.292322 N.ar      1 <1>        -0.692800 
     27 C           0.069941   -2.014268    0.652644 C.ar      1 <1>         0.577700 
     28 O           0.260039   -3.203333    0.891172 O.2       1 <1>        -0.537900 
     29 H          -1.579842   -2.822121    3.017323 H         1 <1>         0.168800 
     30 H          -3.344678   -2.947707    2.903434 H         1 <1>         0.138800 
     31 H          -2.583844   -1.366963    3.168661 H         1 <1>         0.133900 
     32 H          -2.298512   -3.111727    0.648571 H         1 <1>         0.164100 
     33 H          -3.310862   -1.678204    0.742782 H         1 <1>         0.144600 
     34 H          -2.971513    0.689886    1.465305 H         1 <1>         0.162300 
     35 H          -2.122292    1.949624    0.582457 H         1 <1>         0.173000 
     36 H          -4.966912   -0.021672    0.722971 H         1 <1>         0.127200 
     37 H          -6.723743   -0.267001   -0.997166 H         1 <1>         0.128700 
     38 H          -6.278184    0.417901   -3.340560 H         1 <1>         0.127300 
     39 H          -4.780205    1.376570   -5.010711 H         1 <1>         0.126700 
     40 H          -2.601156    2.370654   -5.636285 H         1 <1>         0.125600 
     41 H          -0.820911    2.640666   -3.912085 H         1 <1>         0.119000 
     42 H          -1.195508    1.895929   -1.602670 H         1 <1>         0.167200 
     43 H           1.981457    1.784169   -0.533037 H         1 <1>         0.342000 
     44 H           3.169859   -0.415961   -1.658514 H         1 <1>         0.165200 
     45 H           3.996255    1.075225   -1.224067 H         1 <1>         0.177000 
     46 H           4.705817   -2.129133   -1.172766 H         1 <1>         0.134700 
     47 H           6.157303   -3.348369    0.420044 H         1 <1>         0.140600 
     48 H           6.544572   -2.436609    2.701645 H         1 <1>         0.138900 
     49 H           5.460678   -0.303082    3.377285 H         1 <1>         0.139200 
     50 H           3.998134    0.908831    1.781671 H         1 <1>         0.142400 
     51 H           2.077055   -1.666865    0.326640 H         1 <1>         0.352400 
@<TRIPOS>BOND
     1   22   47 1    
     2   21   46 1    
     3    2   32 1    
     4   27   28 2    
     5   11   39 1    
     6   21   22 ar   
     7   22   23 ar   
     8   20   21 ar   
     9    9   38 1    
    10   12   40 1    
    11   19   44 1    
    12   11   12 ar   
    13   10   11 ar   
    14   27   26 ar   
    15    3   27 ar   
    16   26   51 1    
    17   13   12 ar   
    18   10    9 ar   
    19    8    9 ar   
    20    2   33 1    
    21    3    2 1    
    22    2    1 1    
    23   15   10 ar   
    24   17   26 ar   
    25    8   37 1    
    26    4    3 ar   
    27    7    8 ar   
    28   23   48 1    
    29    1   30 1    
    30   23   24 ar   
    31   19   20 1    
    32   20   25 ar   
    33   13   41 1    
    34   14   13 ar   
    35   19   45 1    
    36   18   19 1    
    37    1   29 1    
    38    1   31 1    
    39   15   14 ar   
    40    6   15 ar   
    41   14   42 1    
    42   17   18 1    
    43   16   17 ar   
    44    6    7 ar   
    45    7   36 1    
    46    4   16 ar   
    47    5    4 1    
    48    6    5 1    
    49   18   43 1    
    50   24   25 ar   
    51   24   49 1    
    52   25   50 1    
    53    5   34 1    
    54    5   35 1    
@<TRIPOS>SUBSTRUCTURE
     1 ****       38 TEMP              0 ****  ****    0 ROOT 
