#	Name:			WYP-2008-CB-168-6L
#	Creating user name:	Administrator
#	Creation time:		Sun Jul 05 16:40:12 2020

#	Modifying user name:	Administrator
#	Modification time:	Sun Jul 05 16:40:47 2020

@<TRIPOS>MOLECULE
WYP-2008-CB-168-6L
   48    51     1     0     0
SMALL
MULLIKEN_CHARGES
INVALID_CHARGES
Gaussian 16 #p B3LYP/6-31G* opt
@<TRIPOS>ATOM
      1 C          -2.415356   -2.089186    1.107605 C.3       1 <1>        -0.539700 
      2 C          -1.201136   -1.288100    0.716990 C.ar      1 <1>         0.051600 
      3 C          -1.198609    0.064141    0.449228 C.ar      1 <1>         0.267700 
      4 C          -2.464573    0.910170    0.526960 C.3       1 <1>        -0.444400 
      5 C          -3.460033    0.741665   -0.617004 C.ar      1 <1>         0.135800 
      6 C          -4.667601    0.114728   -0.373756 C.ar      1 <1>        -0.209500 
      7 C          -5.642897   -0.054037   -1.384360 C.ar      1 <1>        -0.130300 
      8 C          -5.409243    0.420135   -2.651748 C.ar      1 <1>        -0.193000 
      9 C          -4.194196    1.090188   -2.955258 C.ar      1 <1>         0.143300 
     10 C          -3.948045    1.608093   -4.255125 C.ar      1 <1>        -0.197700 
     11 C          -2.778869    2.272377   -4.545596 C.ar      1 <1>        -0.131200 
     12 C          -1.800615    2.444504   -3.539026 C.ar      1 <1>        -0.142200 
     13 C          -2.002972    1.950283   -2.268356 C.ar      1 <1>        -0.201300 
     14 C          -3.199698    1.257353   -1.931670 C.ar      1 <1>         0.064700 
     15 N          -0.073504    0.779189    0.112784 N.ar      1 <1>        -0.585600 
     16 C           1.064625    0.130751    0.045304 C.ar      1 <1>         0.749400 
     17 N           2.206907    0.832667   -0.256101 N.pl3     1 <1>        -0.622100 
     18 C           3.404016    0.225550   -0.834430 C.3       1 <1>        -0.233400 
     19 C           4.257869   -0.546496    0.161727 C.ar      1 <1>         0.120100 
     20 C           4.850820   -1.757311   -0.215572 C.ar      1 <1>        -0.187600 
     21 C           5.674671   -2.453161    0.672416 C.ar      1 <1>        -0.122100 
     22 C           5.908913   -1.945282    1.949838 C.ar      1 <1>        -0.125400 
     23 C           5.315064   -0.740678    2.336252 C.ar      1 <1>        -0.126800 
     24 C           4.494900   -0.045794    1.448912 C.ar      1 <1>        -0.159200 
     25 N           1.161553   -1.204308    0.285914 N.ar      1 <1>        -0.691400 
     26 C           0.054937   -2.014152    0.643771 C.ar      1 <1>         0.567200 
     27 O           0.243938   -3.206636    0.862618 O.2       1 <1>        -0.536200 
     28 H          -2.094757   -3.069754    1.466374 H         1 <1>         0.187200 
     29 H          -3.095738   -2.243219    0.261644 H         1 <1>         0.170100 
     30 H          -2.992214   -1.599605    1.901932 H         1 <1>         0.143700 
     31 H          -2.986894    0.672004    1.460552 H         1 <1>         0.158600 
     32 H          -2.146720    1.955312    0.598137 H         1 <1>         0.170600 
     33 H          -4.879027   -0.257008    0.625418 H         1 <1>         0.124700 
     34 H          -6.576170   -0.557902   -1.147578 H         1 <1>         0.128500 
     35 H          -6.151175    0.297884   -3.437378 H         1 <1>         0.127000 
     36 H          -4.709527    1.471744   -5.019828 H         1 <1>         0.126700 
     37 H          -2.605623    2.665999   -5.543741 H         1 <1>         0.125500 
     38 H          -0.878957    2.972067   -3.771883 H         1 <1>         0.119300 
     39 H          -1.232578    2.072591   -1.514996 H         1 <1>         0.164600 
     40 H           1.986598    1.777478   -0.542276 H         1 <1>         0.342000 
     41 H           3.146217   -0.429989   -1.679882 H         1 <1>         0.165300 
     42 H           3.989453    1.053199   -1.250565 H         1 <1>         0.177000 
     43 H           4.667824   -2.159457   -1.210013 H         1 <1>         0.134800 
     44 H           6.123648   -3.394180    0.366900 H         1 <1>         0.140600 
     45 H           6.543929   -2.487767    2.644795 H         1 <1>         0.138800 
     46 H           5.488701   -0.343808    3.332878 H         1 <1>         0.139100 
     47 H           4.021808    0.883717    1.753216 H         1 <1>         0.142300 
     48 H           2.060522   -1.675249    0.305944 H         1 <1>         0.352900 
@<TRIPOS>BOND
     1   20   43 1    
     2   21   44 1    
     3   10   36 1    
     4   26   27 2    
     5   20   21 ar   
     6   19   20 ar   
     7   21   22 ar   
     8    8   35 1    
     9   18   41 1    
    10   11   37 1    
    11   10   11 ar   
    12    9   10 ar   
    13    1   29 1    
    14    1   28 1    
    15   25   48 1    
    16   12   11 ar   
    17    9    8 ar   
    18    7    8 ar   
    19   26   25 ar   
    20    2   26 ar   
    21   14    9 ar   
    22    7   34 1    
    23   16   25 ar   
    24    2    1 1    
    25    1   30 1    
    26    6    7 ar   
    27   18   19 1    
    28   18   42 1    
    29   17   18 1    
    30   19   24 ar   
    31   22   45 1    
    32   22   23 ar   
    33    3    2 ar   
    34   12   38 1    
    35   13   12 ar   
    36   14   13 ar   
    37    5   14 ar   
    38   16   17 1    
    39   15   16 ar   
    40   13   39 1    
    41    5    6 ar   
    42    6   33 1    
    43   17   40 1    
    44    4    5 1    
    45    3   15 ar   
    46    3    4 1    
    47   24   23 ar   
    48   24   47 1    
    49   23   46 1    
    50    4   31 1    
    51    4   32 1    
@<TRIPOS>SUBSTRUCTURE
     1 ****       29 TEMP              0 ****  ****    0 ROOT 
