#	Name:			WYP-2008-CB-168-6G
#	Creating user name:	Administrator
#	Creation time:		Sun Jul 05 16:40:12 2020

#	Modifying user name:	Administrator
#	Modification time:	Sun Jul 05 16:40:47 2020

@<TRIPOS>MOLECULE
WYP-2008-CB-168-6G
   53    55     1     0     0
SMALL
MULLIKEN_CHARGES
INVALID_CHARGES
Gaussian 16 #p B3LYP/6-31G* opt
@<TRIPOS>ATOM
      1 C           2.025721    2.758402   -1.627492 C.3       1 <1>        -0.447200 
      2 C           1.918243    2.448692   -0.132408 C.3       1 <1>        -0.150200 
      3 N           2.096486    1.023681    0.175675 N.pl3     1 <1>        -0.453000 
      4 C           3.456749    0.539475    0.405225 C.3       1 <1>        -0.177900 
      5 C           3.867627    0.513419    1.883492 C.3       1 <1>        -0.445100 
      6 C           1.004363    0.202558    0.199366 C.ar      1 <1>         0.792500 
      7 N          -0.182658    0.666330   -0.123929 N.ar      1 <1>        -0.591700 
      8 C          -1.259391   -0.181843   -0.065848 C.ar      1 <1>         0.251700 
      9 C          -2.559202    0.529279   -0.429164 C.3       1 <1>        -0.437500 
     10 C          -3.115140    1.391648    0.700148 C.ar      1 <1>         0.127100 
     11 C          -3.965207    0.807815    1.621831 C.ar      1 <1>        -0.200900 
     12 C          -4.524755    1.538514    2.693674 C.ar      1 <1>        -0.129600 
     13 C          -4.239621    2.874914    2.838552 C.ar      1 <1>        -0.194100 
     14 C          -3.381983    3.529741    1.916641 C.ar      1 <1>         0.138700 
     15 C          -3.092255    4.915540    2.045954 C.ar      1 <1>        -0.195600 
     16 C          -2.267235    5.556757    1.152157 C.ar      1 <1>        -0.132300 
     17 C          -1.688987    4.828991    0.085461 C.ar      1 <1>        -0.147000 
     18 C          -1.944736    3.483737   -0.066640 C.ar      1 <1>        -0.185300 
     19 C          -2.799156    2.785011    0.833373 C.ar      1 <1>         0.070300 
     20 C          -1.186842   -1.521012    0.276259 C.ar      1 <1>         0.030100 
     21 C          -2.362789   -2.488499    0.338393 C.3       1 <1>        -0.143200 
     22 C          -2.220797   -3.636794   -0.681909 C.3       1 <1>        -0.451100 
     23 C          -2.587065   -3.035625    1.763530 C.3       1 <1>        -0.455200 
     24 C           0.121930   -2.052954    0.614581 C.ar      1 <1>         0.575500 
     25 O           0.412300   -3.202358    0.946005 O.2       1 <1>        -0.544800 
     26 N           1.170620   -1.105667    0.560758 N.ar      1 <1>        -0.712400 
     27 H           2.996261    2.452107   -2.035767 H         1 <1>         0.142600 
     28 H           1.914032    3.835176   -1.800218 H         1 <1>         0.147800 
     29 H           1.238643    2.235641   -2.178610 H         1 <1>         0.173100 
     30 H           0.943018    2.756544    0.246740 H         1 <1>         0.200800 
     31 H           2.682810    2.997664    0.429668 H         1 <1>         0.142700 
     32 H           3.578639   -0.450827   -0.050720 H         1 <1>         0.156700 
     33 H           4.129252    1.199129   -0.152615 H         1 <1>         0.166700 
     34 H           3.791010    1.513037    2.324049 H         1 <1>         0.163800 
     35 H           3.229964   -0.157134    2.469497 H         1 <1>         0.161800 
     36 H           4.904567    0.173661    1.984773 H         1 <1>         0.156000 
     37 H          -3.323889   -0.192887   -0.719412 H         1 <1>         0.164200 
     38 H          -2.358760    1.139570   -1.313932 H         1 <1>         0.163200 
     39 H          -4.217183   -0.244448    1.518291 H         1 <1>         0.135400 
     40 H          -5.186353    1.037129    3.395059 H         1 <1>         0.129300 
     41 H          -4.669281    3.450430    3.655087 H         1 <1>         0.126700 
     42 H          -3.542426    5.462906    2.871089 H         1 <1>         0.127200 
     43 H          -2.058192    6.617614    1.261582 H         1 <1>         0.126200 
     44 H          -1.036967    5.337057   -0.620731 H         1 <1>         0.123000 
     45 H          -1.467526    2.938839   -0.871737 H         1 <1>         0.150300 
     46 H          -3.267838   -1.936073    0.067828 H         1 <1>         0.119500 
     47 H          -1.338779   -4.242820   -0.461055 H         1 <1>         0.180700 
     48 H          -2.127012   -3.246875   -1.702413 H         1 <1>         0.131600 
     49 H          -3.104729   -4.285623   -0.648127 H         1 <1>         0.131700 
     50 H          -1.724078   -3.619262    2.093061 H         1 <1>         0.181000 
     51 H          -3.472552   -3.682976    1.785419 H         1 <1>         0.130500 
     52 H          -2.745174   -2.219058    2.477744 H         1 <1>         0.136800 
     53 H           2.065026   -1.483859    0.844972 H         1 <1>         0.338500 
@<TRIPOS>BOND
     1   22   48 1    
     2    1   29 1    
     3    9   38 1    
     4    1   28 1    
     5    1   27 1    
     6    9   37 1    
     7    2    1 1    
     8   18   45 1    
     9   22   49 1    
    10   22   47 1    
    11   21   22 1    
    12   17   44 1    
    13    8    9 1    
    14    9   10 1    
    15   18   17 ar   
    16   19   18 ar   
    17   21   46 1    
    18   17   16 ar   
    19    7    8 ar   
    20    8   20 ar   
    21    6    7 ar   
    22   20   21 1    
    23   21   23 1    
    24   10   19 ar   
    25   10   11 ar   
    26   20   24 ar   
    27   19   14 ar   
    28    2   30 1    
    29    3    2 1    
    30    2   31 1    
    31    6    3 1    
    32    6   26 ar   
    33   16   43 1    
    34   16   15 ar   
    35    3    4 1    
    36   11   39 1    
    37    4   33 1    
    38   24   26 ar   
    39   24   25 2    
    40    4   32 1    
    41   11   12 ar   
    42   26   53 1    
    43   14   15 ar   
    44   14   13 ar   
    45    4    5 1    
    46   23   51 1    
    47   15   42 1    
    48   23   50 1    
    49   23   52 1    
    50   12   13 ar   
    51   12   40 1    
    52   13   41 1    
    53    5   36 1    
    54    5   34 1    
    55    5   35 1    
@<TRIPOS>SUBSTRUCTURE
     1 ****       48 TEMP              0 ****  ****    0 ROOT 
