#	Name:			WYP-2008-CB-168-6E
#	Creating user name:	Administrator
#	Creation time:		Sun Jul 05 16:40:11 2020

#	Modifying user name:	Administrator
#	Modification time:	Sun Jul 05 16:40:47 2020

@<TRIPOS>MOLECULE
WYP-2008-CB-168-6E
   44    46     1     0     0
SMALL
MULLIKEN_CHARGES
INVALID_CHARGES
Gaussian 16 #p B3LYP/6-31G* opt
@<TRIPOS>ATOM
      1 C          -2.498157   -2.458682    2.612723 C.3       1 <1>        -0.443000 
      2 C          -2.377714   -2.207430    1.098656 C.3       1 <1>        -0.329900 
      3 C          -1.187622   -1.353749    0.728001 C.ar      1 <1>         0.034100 
      4 C          -1.222893    0.002919    0.484581 C.ar      1 <1>         0.221600 
      5 C          -2.501321    0.810541    0.579269 C.3       1 <1>        -0.423500 
      6 C          -3.314708    0.924404   -0.706392 C.ar      1 <1>         0.128000 
      7 C          -2.947974    0.268535   -1.863514 C.ar      1 <1>        -0.193900 
      8 C          -3.708341    0.377538   -3.052990 C.ar      1 <1>        -0.135600 
      9 C          -4.843778    1.148571   -3.083562 C.ar      1 <1>        -0.191100 
     10 C          -5.268186    1.845372   -1.920254 C.ar      1 <1>         0.137400 
     11 C          -6.440163    2.647769   -1.927556 C.ar      1 <1>        -0.194400 
     12 C          -6.849326    3.320849   -0.798873 C.ar      1 <1>        -0.133200 
     13 C          -6.095710    3.217507    0.392757 C.ar      1 <1>        -0.133900 
     14 C          -4.953264    2.447248    0.432589 C.ar      1 <1>        -0.196400 
     15 C          -4.499067    1.737166   -0.713282 C.ar      1 <1>         0.071100 
     16 N          -0.130770    0.758966    0.142165 N.ar      1 <1>        -0.585000 
     17 C           1.034488    0.158212    0.046675 C.ar      1 <1>         0.793400 
     18 N           2.151423    0.858310   -0.327516 N.pl3     1 <1>        -0.457100 
     19 C           2.085405    2.311847   -0.437000 C.3       1 <1>        -0.320500 
     20 C           3.467126    0.240568   -0.314681 C.3       1 <1>        -0.340200 
     21 N           1.169156   -1.179608    0.302252 N.ar      1 <1>        -0.714100 
     22 C           0.092414   -2.027974    0.658812 C.ar      1 <1>         0.572700 
     23 O           0.324851   -3.215442    0.871670 O.2       1 <1>        -0.541900 
     24 H          -2.628405   -1.520268    3.165181 H         1 <1>         0.135200 
     25 H          -1.596597   -2.953140    2.987446 H         1 <1>         0.167400 
     26 H          -3.357016   -3.103478    2.833108 H         1 <1>         0.140400 
     27 H          -3.300213   -1.757888    0.717020 H         1 <1>         0.142600 
     28 H          -2.267037   -3.175177    0.596228 H         1 <1>         0.162900 
     29 H          -2.211042    1.816774    0.903622 H         1 <1>         0.173000 
     30 H          -3.139234    0.399846    1.370927 H         1 <1>         0.166000 
     31 H          -2.055902   -0.349242   -1.867438 H         1 <1>         0.132900 
     32 H          -3.383350   -0.156808   -3.941801 H         1 <1>         0.127900 
     33 H          -5.433554    1.236756   -3.992980 H         1 <1>         0.126000 
     34 H          -7.012756    2.720047   -2.849610 H         1 <1>         0.128000 
     35 H          -7.748636    3.930558   -0.819900 H         1 <1>         0.128100 
     36 H          -6.420250    3.749512    1.283205 H         1 <1>         0.127500 
     37 H          -4.391467    2.383828    1.358608 H         1 <1>         0.131700 
     38 H           2.498479    2.801932    0.456148 H         1 <1>         0.155900 
     39 H           2.656383    2.637116   -1.313041 H         1 <1>         0.155600 
     40 H           1.043510    2.604945   -0.549648 H         1 <1>         0.217400 
     41 H           3.494151   -0.660496   -0.939974 H         1 <1>         0.171100 
     42 H           3.807344   -0.019857    0.699334 H         1 <1>         0.168500 
     43 H           4.183835    0.946713   -0.737959 H         1 <1>         0.178800 
     44 H           2.063784   -1.651429    0.265566 H         1 <1>         0.338700 
@<TRIPOS>BOND
     1    8   32 1    
     2    9   33 1    
     3    8    9 ar   
     4    7    8 ar   
     5   10    9 ar   
     6    7   31 1    
     7    6    7 ar   
     8   11   34 1    
     9    2   28 1    
    10   20   41 1    
    11   22   23 2    
    12   10   11 ar   
    13   15   10 ar   
    14   21   44 1    
    15   22   21 ar   
    16    3   22 ar   
    17   11   12 ar   
    18    2   27 1    
    19   17   21 ar   
    20    3    2 1    
    21    2    1 1    
    22    6   15 ar   
    23    5    6 1    
    24    4    3 ar   
    25   20   43 1    
    26   18   20 1    
    27   20   42 1    
    28   17   18 1    
    29   16   17 ar   
    30   15   14 ar   
    31   18   19 1    
    32   19   39 1    
    33    4   16 ar   
    34    4    5 1    
    35    1   26 1    
    36    5   30 1    
    37    5   29 1    
    38   12   35 1    
    39   12   13 ar   
    40   19   40 1    
    41   19   38 1    
    42    1   25 1    
    43    1   24 1    
    44   14   13 ar   
    45   14   37 1    
    46   13   36 1    
@<TRIPOS>SUBSTRUCTURE
     1 ****       28 TEMP              0 ****  ****    0 ROOT 
