#	Name:			WYP-2008-CB-168-6Q
#	Creating user name:	Administrator
#	Creation time:		Sun Jul 05 16:40:13 2020

#	Modifying user name:	Administrator
#	Modification time:	Sun Jul 05 16:40:47 2020

@<TRIPOS>MOLECULE
WYP-2008-CB-168-6Q
   59    61     1     0     0
SMALL
MULLIKEN_CHARGES
INVALID_CHARGES
Gaussian 16 #p B3LYP/6-31G* opt
@<TRIPOS>ATOM
      1 C           0.989377    2.749629   -4.298184 C.3       1 <1>        -0.443900 
      2 C           0.932077    2.242363   -2.853613 C.3       1 <1>        -0.245800 
      3 C           2.103462    2.749382   -2.003497 C.3       1 <1>        -0.256100 
      4 C           2.059887    2.318769   -0.529363 C.3       1 <1>        -0.157200 
      5 N           2.150019    0.865602   -0.324653 N.pl3     1 <1>        -0.465600 
      6 C           3.478500    0.259323   -0.392559 C.3       1 <1>        -0.181500 
      7 C           4.194013    0.138723    0.964299 C.3       1 <1>        -0.259900 
      8 C           5.601427   -0.458248    0.835631 C.3       1 <1>        -0.253800 
      9 C           6.325455   -0.576419    2.180453 C.3       1 <1>        -0.443000 
     10 C           1.036326    0.159072    0.042968 C.ar      1 <1>         0.793600 
     11 N          -0.132539    0.758181    0.135864 N.ar      1 <1>        -0.583500 
     12 C          -1.219948    0.003077    0.487377 C.ar      1 <1>         0.219800 
     13 C          -2.503891    0.798588    0.583556 C.3       1 <1>        -0.414200 
     14 C          -3.300902    0.930705   -0.710954 C.ar      1 <1>         0.125800 
     15 C          -2.906065    0.309476   -1.878185 C.ar      1 <1>        -0.195300 
     16 C          -3.651685    0.433748   -3.075806 C.ar      1 <1>        -0.136400 
     17 C          -4.799835    1.185748   -3.104540 C.ar      1 <1>        -0.191200 
     18 C          -5.252805    1.846969   -1.931280 C.ar      1 <1>         0.137500 
     19 C          -6.438289    2.629178   -1.936515 C.ar      1 <1>        -0.194500 
     20 C          -6.875329    3.267309   -0.798042 C.ar      1 <1>        -0.133200 
     21 C          -6.137260    3.147883    0.401815 C.ar      1 <1>        -0.133900 
     22 C          -4.982266    2.396576    0.439982 C.ar      1 <1>        -0.196300 
     23 C          -4.499372    1.722518   -0.715923 C.ar      1 <1>         0.071100 
     24 C          -1.189362   -1.352158    0.736453 C.ar      1 <1>         0.048300 
     25 C          -2.394215   -2.181603    1.102406 C.3       1 <1>        -0.540700 
     26 C           0.086948   -2.031039    0.656250 C.ar      1 <1>         0.563000 
     27 O           0.324505   -3.219036    0.859186 O.2       1 <1>        -0.542500 
     28 N           1.163516   -1.180007    0.300984 N.ar      1 <1>        -0.713900 
     29 H           0.954387    3.845538   -4.337358 H         1 <1>         0.141400 
     30 H           0.145828    2.369844   -4.885300 H         1 <1>         0.147300 
     31 H           1.913312    2.431162   -4.797732 H         1 <1>         0.136700 
     32 H           0.931543    1.144813   -2.851245 H         1 <1>         0.135900 
     33 H          -0.014239    2.543223   -2.387951 H         1 <1>         0.157400 
     34 H           2.120241    3.848991   -2.017885 H         1 <1>         0.135900 
     35 H           3.052864    2.430457   -2.459527 H         1 <1>         0.126700 
     36 H           2.892759    2.782831    0.015379 H         1 <1>         0.139400 
     37 H           1.130359    2.652361   -0.067664 H         1 <1>         0.196200 
     38 H           3.418118   -0.719860   -0.886358 H         1 <1>         0.151200 
     39 H           4.077906    0.881339   -1.065151 H         1 <1>         0.164200 
     40 H           3.592599   -0.474383    1.649006 H         1 <1>         0.146600 
     41 H           4.253406    1.135655    1.421656 H         1 <1>         0.146700 
     42 H           5.535576   -1.450968    0.367682 H         1 <1>         0.137100 
     43 H           6.197798    0.161530    0.150850 H         1 <1>         0.136300 
     44 H           6.439221    0.404761    2.656863 H         1 <1>         0.146200 
     45 H           5.770798   -1.219740    2.873952 H         1 <1>         0.150500 
     46 H           7.325924   -1.004913    2.055904 H         1 <1>         0.149500 
     47 H          -3.148637    0.359151    1.354596 H         1 <1>         0.163100 
     48 H          -2.231288    1.801149    0.934342 H         1 <1>         0.171100 
     49 H          -2.002765   -0.291825   -1.883628 H         1 <1>         0.135500 
     50 H          -3.305194   -0.074092   -3.972044 H         1 <1>         0.127700 
     51 H          -5.378115    1.285615   -4.020030 H         1 <1>         0.126000 
     52 H          -6.998802    2.714156   -2.864821 H         1 <1>         0.128000 
     53 H          -7.784756    3.861937   -0.817662 H         1 <1>         0.128100 
     54 H          -6.483817    3.652375    1.299941 H         1 <1>         0.127500 
     55 H          -4.432707    2.319840    1.372229 H         1 <1>         0.132000 
     56 H          -3.239895   -1.992336    0.432237 H         1 <1>         0.159200 
     57 H          -2.132398   -3.240530    1.042517 H         1 <1>         0.186700 
     58 H          -2.734884   -1.984667    2.128271 H         1 <1>         0.154000 
     59 H           2.055362   -1.655713    0.263919 H         1 <1>         0.338900 
@<TRIPOS>BOND
     1   21   54 1    
     2   22   55 1    
     3    9   44 1    
     4   22   21 ar   
     5   21   20 ar   
     6    4   36 1    
     7    7   41 1    
     8   20   53 1    
     9   13   48 1    
    10   23   22 ar   
    11    4   37 1    
    12   19   20 ar   
    13    9   45 1    
    14    9   46 1    
    15    8    9 1    
    16    3    4 1    
    17    4    5 1    
    18    3   34 1    
    19   13   47 1    
    20    7   40 1    
    21   12   13 1    
    22   13   14 1    
    23    7    8 1    
    24    6    7 1    
    25   11   12 ar   
    26   10   11 ar   
    27   14   23 ar   
    28   23   18 ar   
    29    3   35 1    
    30    2    3 1    
    31    8   43 1    
    32    8   42 1    
    33    5   10 1    
    34    5    6 1    
    35   12   24 ar   
    36   18   19 ar   
    37   19   52 1    
    38   10   28 ar   
    39   25   58 1    
    40   14   15 ar   
    41    2   33 1    
    42    6   39 1    
    43    6   38 1    
    44   18   17 ar   
    45   24   25 1    
    46   24   26 ar   
    47    1   29 1    
    48    2    1 1    
    49    2   32 1    
    50   28   59 1    
    51   28   26 ar   
    52   25   56 1    
    53   25   57 1    
    54   26   27 2    
    55   15   49 1    
    56   15   16 ar   
    57    1   31 1    
    58    1   30 1    
    59   17   16 ar   
    60   17   51 1    
    61   16   50 1    
@<TRIPOS>SUBSTRUCTURE
     1 ****       36 TEMP              0 ****  ****    0 ROOT 
