#	Name:			WYP-2008-CB-168-6I
#	Creating user name:	Administrator
#	Creation time:		Sun Jul 05 16:40:12 2020

#	Modifying user name:	Administrator
#	Modification time:	Sun Jul 05 16:40:47 2020

@<TRIPOS>MOLECULE
WYP-2008-CB-168-6I
   47    49     1     0     0
SMALL
MULLIKEN_CHARGES
INVALID_CHARGES
Gaussian 16 #p B3LYP/6-31G* opt
@<TRIPOS>ATOM
      1 C           2.152947    3.203675    0.580744 C.3       1 <1>        -0.445800 
      2 C           2.015707    2.290359   -0.639506 C.3       1 <1>        -0.140800 
      3 N           2.151986    0.864117   -0.314165 N.pl3     1 <1>        -0.455800 
      4 C           3.493138    0.282974   -0.327869 C.3       1 <1>        -0.177600 
      5 C           3.864433   -0.395388   -1.653216 C.3       1 <1>        -0.444800 
      6 C           1.038247    0.154262    0.038931 C.ar      1 <1>         0.787300 
      7 N          -0.124349    0.764011    0.140532 N.ar      1 <1>        -0.583700 
      8 C          -1.216491    0.012265    0.488157 C.ar      1 <1>         0.219300 
      9 C          -2.499459    0.810381    0.575894 C.3       1 <1>        -0.415000 
     10 C          -3.312032    0.904950   -0.712313 C.ar      1 <1>         0.126100 
     11 C          -2.926458    0.257405   -1.868143 C.ar      1 <1>        -0.195400 
     12 C          -3.685429    0.348070   -3.060139 C.ar      1 <1>        -0.135700 
     13 C          -4.837970    1.093214   -3.094906 C.ar      1 <1>        -0.191200 
     14 C          -5.281622    1.781154   -1.933473 C.ar      1 <1>         0.137500 
     15 C          -6.471076    2.557227   -1.945158 C.ar      1 <1>        -0.194500 
     16 C          -6.898834    3.221723   -0.818311 C.ar      1 <1>        -0.133200 
     17 C          -6.146945    3.135965    0.375851 C.ar      1 <1>        -0.133900 
     18 C          -4.987979    2.391269    0.420083 C.ar      1 <1>        -0.196300 
     19 C          -4.514334    1.690662   -0.723775 C.ar      1 <1>         0.071200 
     20 C          -1.188355   -1.340047    0.752870 C.ar      1 <1>         0.051400 
     21 C          -2.395297   -2.160613    1.131814 C.3       1 <1>        -0.541500 
     22 C           0.081776   -2.029549    0.657250 C.ar      1 <1>         0.563200 
     23 O           0.310446   -3.220934    0.849065 O.2       1 <1>        -0.541700 
     24 N           1.158845   -1.188370    0.280691 N.ar      1 <1>        -0.712000 
     25 H           2.075658    4.254194    0.277364 H         1 <1>         0.149100 
     26 H           3.119061    3.067853    1.081321 H         1 <1>         0.141600 
     27 H           1.355536    2.992075    1.298572 H         1 <1>         0.175900 
     28 H           2.783056    2.524925   -1.386469 H         1 <1>         0.142000 
     29 H           1.039906    2.434308   -1.105220 H         1 <1>         0.192100 
     30 H           4.196425    1.095894   -0.120173 H         1 <1>         0.167100 
     31 H           3.602246   -0.415575    0.511170 H         1 <1>         0.156900 
     32 H           3.803395    0.316723   -2.482825 H         1 <1>         0.162800 
     33 H           4.888892   -0.782366   -1.609637 H         1 <1>         0.156400 
     34 H           3.193802   -1.230663   -1.882160 H         1 <1>         0.160800 
     35 H          -2.223215    1.822381    0.895029 H         1 <1>         0.172100 
     36 H          -3.134880    0.392535    1.366504 H         1 <1>         0.163100 
     37 H          -2.019675   -0.338800   -1.868921 H         1 <1>         0.133400 
     38 H          -3.345651   -0.179506   -3.947528 H         1 <1>         0.127700 
     39 H          -5.426562    1.167514   -4.006231 H         1 <1>         0.126000 
     40 H          -7.042081    2.616177   -2.869138 H         1 <1>         0.128000 
     41 H          -7.811273    3.811348   -0.842767 H         1 <1>         0.128100 
     42 H          -6.486159    3.661362    1.264748 H         1 <1>         0.127500 
     43 H          -4.427727    2.340946    1.347763 H         1 <1>         0.131900 
     44 H          -3.241338   -1.978936    0.459976 H         1 <1>         0.160000 
     45 H          -2.734117   -1.946666    2.154924 H         1 <1>         0.154100 
     46 H          -2.136394   -3.220948    1.087244 H         1 <1>         0.187200 
     47 H           2.036910   -1.680327    0.177688 H         1 <1>         0.339000 
@<TRIPOS>BOND
     1   17   42 1    
     2   18   43 1    
     3    1   27 1    
     4   21   45 1    
     5    1   26 1    
     6    9   36 1    
     7   18   17 ar   
     8   17   16 ar   
     9    9   35 1    
    10   19   18 ar   
    11    1   25 1    
    12    2    1 1    
    13    8    9 1    
    14    9   10 1    
    15   20   21 1    
    16   21   46 1    
    17   21   44 1    
    18   16   41 1    
    19    8   20 ar   
    20    7    8 ar   
    21   22   20 ar   
    22   16   15 ar   
    23    6    7 ar   
    24    4   31 1    
    25   22   23 2    
    26   24   22 ar   
    27    6   24 ar   
    28    3    6 1    
    29   10   19 ar   
    30   19   14 ar   
    31   24   47 1    
    32    4   30 1    
    33    3    2 1    
    34    2   29 1    
    35    2   28 1    
    36    3    4 1    
    37   10   11 ar   
    38    4    5 1    
    39   15   14 ar   
    40   15   40 1    
    41   14   13 ar   
    42   11   37 1    
    43   11   12 ar   
    44    5   33 1    
    45    5   34 1    
    46    5   32 1    
    47   13   12 ar   
    48   13   39 1    
    49   12   38 1    
@<TRIPOS>SUBSTRUCTURE
     1 ****       27 TEMP              0 ****  ****    0 ROOT 
