#	Name:			WYP-2008-CB-168-6D
#	Creating user name:	Administrator
#	Creation time:		Sun Jul 05 16:40:11 2020

#	Modifying user name:	Administrator
#	Modification time:	Sun Jul 05 16:40:47 2020

@<TRIPOS>MOLECULE
WYP-2008-CB-168-6D
   51    54     1     0     0
SMALL
MULLIKEN_CHARGES
INVALID_CHARGES
Gaussian 16 #p B3LYP/6-31G* opt
@<TRIPOS>ATOM
      1 C          -2.905485   -3.025076   -0.073946 C.3       1 <1>        -0.447100 
      2 C          -2.398145   -2.137855    1.078076 C.3       1 <1>        -0.321700 
      3 C          -1.198714   -1.298475    0.708220 C.ar      1 <1>         0.037200 
      4 C          -1.203795    0.054197    0.442021 C.ar      1 <1>         0.262800 
      5 C          -2.461420    0.918455    0.511350 C.3       1 <1>        -0.451900 
      6 C          -3.480437    0.754371   -0.611628 C.ar      1 <1>         0.141400 
      7 C          -4.723398    0.223934   -0.322540 C.ar      1 <1>        -0.211300 
      8 C          -5.721958    0.066462   -1.312037 C.ar      1 <1>        -0.129100 
      9 C          -5.474865    0.454419   -2.605932 C.ar      1 <1>        -0.193200 
     10 C          -4.223616    1.027632   -2.957289 C.ar      1 <1>         0.143900 
     11 C          -3.962292    1.457964   -4.285629 C.ar      1 <1>        -0.197500 
     12 C          -2.758330    2.032368   -4.622397 C.ar      1 <1>        -0.131000 
     13 C          -1.760075    2.200252   -3.635150 C.ar      1 <1>        -0.142400 
     14 C          -1.976388    1.788196   -2.337688 C.ar      1 <1>        -0.202300 
     15 C          -3.207525    1.186295   -1.953689 C.ar      1 <1>         0.064200 
     16 N          -0.069822    0.776197    0.140578 N.ar      1 <1>        -0.584500 
     17 C           1.068565    0.132736    0.063736 C.ar      1 <1>         0.746900 
     18 N           2.201259    0.833460   -0.282325 N.pl3     1 <1>        -0.623300 
     19 C           3.552372    0.410907    0.076590 C.3       1 <1>        -0.232800 
     20 C           4.118351   -0.691752   -0.807584 C.ar      1 <1>         0.120400 
     21 C           4.935638   -1.684133   -0.254569 C.ar      1 <1>        -0.182900 
     22 C           5.511497   -2.672148   -1.054736 C.ar      1 <1>        -0.123000 
     23 C           5.258063   -2.665169   -2.424693 C.ar      1 <1>        -0.064200 
     24 CL          5.973047   -3.904130   -3.443534 Cl        1 <1>        -0.011600 
     25 C           4.438090   -1.692617   -2.998975 C.ar      1 <1>        -0.126500 
     26 C           3.873674   -0.711635   -2.186611 C.ar      1 <1>        -0.156600 
     27 N           1.171519   -1.203072    0.296955 N.ar      1 <1>        -0.692100 
     28 C           0.063012   -2.015848    0.638940 C.ar      1 <1>         0.577800 
     29 O           0.247761   -3.211801    0.843559 O.2       1 <1>        -0.535000 
     30 H          -2.111996   -3.699760   -0.407917 H         1 <1>         0.169600 
     31 H          -3.233464   -2.419510   -0.924797 H         1 <1>         0.153600 
     32 H          -3.753813   -3.635416    0.257762 H         1 <1>         0.134800 
     33 H          -2.108016   -2.788862    1.911683 H         1 <1>         0.158300 
     34 H          -3.211389   -1.500456    1.436583 H         1 <1>         0.127700 
     35 H          -2.973558    0.718409    1.458868 H         1 <1>         0.161100 
     36 H          -2.119211    1.957745    0.553402 H         1 <1>         0.172500 
     37 H          -4.946128   -0.081354    0.696883 H         1 <1>         0.125200 
     38 H          -6.682368   -0.362048   -1.038532 H         1 <1>         0.129200 
     39 H          -6.233230    0.337537   -3.376531 H         1 <1>         0.127900 
     40 H          -4.740119    1.327966   -5.034820 H         1 <1>         0.127300 
     41 H          -2.573493    2.359496   -5.642176 H         1 <1>         0.126200 
     42 H          -0.811732    2.658871   -3.903646 H         1 <1>         0.120900 
     43 H          -1.193202    1.912787   -1.597877 H         1 <1>         0.166100 
     44 H           2.020146    1.828813   -0.287661 H         1 <1>         0.343600 
     45 H           4.182185    1.303438   -0.011312 H         1 <1>         0.180800 
     46 H           3.604705    0.096719    1.130170 H         1 <1>         0.165900 
     47 H           5.130439   -1.690833    0.815713 H         1 <1>         0.143200 
     48 H           6.140894   -3.441036   -0.619870 H         1 <1>         0.163900 
     49 H           4.243807   -1.707292   -4.066065 H         1 <1>         0.163700 
     50 H           3.224684    0.041233   -2.624162 H         1 <1>         0.154000 
     51 H           2.046525   -1.701306    0.170179 H         1 <1>         0.349900 
@<TRIPOS>BOND
     1   19   45 1    
     2   18   44 1    
     3   19   46 1    
     4   18   19 1    
     5   19   20 1    
     6    5   36 1    
     7   17   18 1    
     8   16   17 ar   
     9    4   16 ar   
    10   14   43 1    
    11    5   35 1    
    12   17   27 ar   
    13   21   47 1    
    14    5    4 1    
    15    6    5 1    
    16   20   21 ar   
    17   20   26 ar   
    18   13   42 1    
    19    4    3 ar   
    20   21   22 ar   
    21   14   13 ar   
    22   15   14 ar   
    23   26   50 1    
    24   13   12 ar   
    25   26   25 ar   
    26   27   51 1    
    27   27   28 ar   
    28    6   15 ar   
    29    6    7 ar   
    30   15   10 ar   
    31    3   28 ar   
    32    3    2 1    
    33    7   37 1    
    34   22   48 1    
    35   22   23 ar   
    36   12   41 1    
    37   12   11 ar   
    38    7    8 ar   
    39   28   29 2    
    40    2   34 1    
    41   25   23 ar   
    42   25   49 1    
    43   10   11 ar   
    44   10    9 ar   
    45   23   24 1    
    46   11   40 1    
    47    2   33 1    
    48    2    1 1    
    49    8    9 ar   
    50    8   38 1    
    51    9   39 1    
    52    1   31 1    
    53    1   30 1    
    54    1   32 1    
@<TRIPOS>SUBSTRUCTURE
     1 ****       36 TEMP              0 ****  ****    0 ROOT 
