#	Name:			YSQ-2012-CMC-152-15
#	Creating user name:	Administrator
#	Creation time:		Sun Jul 05 16:40:37 2020

#	Modifying user name:	Administrator
#	Modification time:	Sun Jul 05 16:40:47 2020

@<TRIPOS>MOLECULE
YSQ-2012-CMC-152-15
   44    45     1     0     0
SMALL
MULLIKEN_CHARGES
INVALID_CHARGES
Gaussian 16 #p B3LYP/6-31G* opt
@<TRIPOS>ATOM
      1 C          -2.467375   -2.092678    0.862916 C.3       1 <1>        -0.547900 
      2 C          -1.241326   -1.261628    0.564913 C.ar      1 <1>         0.034000 
      3 C          -1.179114    0.088594    0.290447 C.ar      1 <1>         0.246800 
      4 C          -2.354912    1.076652    0.184298 C.3       1 <1>        -0.211300 
      5 C          -3.754298    0.537002   -0.158014 C.3       1 <1>        -0.463000 
      6 C          -2.353730    2.005988    1.396716 C.ar      1 <1>         0.014700 
      7 C          -2.822415    1.643917    2.663118 C.ar      1 <1>         0.334000 
      8 F          -3.312203    0.393148    2.841730 F         1 <1>        -0.288500 
      9 C          -2.820331    2.491528    3.764560 C.ar      1 <1>        -0.191400 
     10 C          -2.312320    3.781207    3.614969 C.ar      1 <1>        -0.135200 
     11 C          -1.818265    4.199455    2.380396 C.ar      1 <1>        -0.194200 
     12 C          -1.848059    3.308317    1.313727 C.ar      1 <1>         0.341600 
     13 F          -1.359740    3.739024    0.126797 F         1 <1>        -0.295900 
     14 N          -0.009006    0.772038    0.066985 N.ar      1 <1>        -0.601100 
     15 C           1.136279    0.133730    0.108036 C.ar      1 <1>         0.793100 
     16 N           2.310261    0.812564   -0.094862 N.pl3     1 <1>        -0.470700 
     17 C           2.251230    2.250863   -0.356942 C.3       1 <1>        -0.333400 
     18 C           3.657657    0.205779   -0.141153 C.3       1 <1>         0.010100 
     19 C           3.855765   -0.771412   -1.314906 C.3       1 <1>        -0.454200 
     20 C           4.130377   -0.354851    1.213197 C.3       1 <1>        -0.454200 
     21 N           1.166228   -1.211362    0.352534 N.ar      1 <1>        -0.710100 
     22 C           0.016054   -1.995568    0.593511 C.ar      1 <1>         0.565800 
     23 O           0.172412   -3.196116    0.805783 O.2       1 <1>        -0.544500 
     24 H          -3.125651   -2.200855   -0.006372 H         1 <1>         0.151200 
     25 H          -2.138170   -3.092647    1.153308 H         1 <1>         0.186400 
     26 H          -3.056147   -1.670386    1.680325 H         1 <1>         0.165000 
     27 H          -2.059406    1.711469   -0.654873 H         1 <1>         0.173700 
     28 H          -3.707259   -0.109125   -1.040585 H         1 <1>         0.152300 
     29 H          -4.216744   -0.020687    0.655190 H         1 <1>         0.168700 
     30 H          -4.408172    1.382599   -0.399190 H         1 <1>         0.146800 
     31 H          -3.208036    2.129366    4.710444 H         1 <1>         0.147600 
     32 H          -2.299779    4.460103    4.462250 H         1 <1>         0.143500 
     33 H          -1.413529    5.194016    2.228227 H         1 <1>         0.144700 
     34 H           2.874678    2.790506    0.366762 H         1 <1>         0.152000 
     35 H           1.220606    2.588220   -0.269112 H         1 <1>         0.224300 
     36 H           2.617836    2.473982   -1.367738 H         1 <1>         0.152300 
     37 H           4.308671    1.059951   -0.351636 H         1 <1>         0.155500 
     38 H           3.542249   -0.306790   -2.255220 H         1 <1>         0.164300 
     39 H           4.916370   -1.033069   -1.399155 H         1 <1>         0.155900 
     40 H           3.297999   -1.706567   -1.205525 H         1 <1>         0.157400 
     41 H           5.196820   -0.599058    1.155937 H         1 <1>         0.156100 
     42 H           3.990831    0.389525    2.003598 H         1 <1>         0.165200 
     43 H           3.606705   -1.265616    1.520592 H         1 <1>         0.156700 
     44 H           2.026175   -1.739251    0.389533 H         1 <1>         0.336100 
@<TRIPOS>BOND
     1    9   31 1    
     2   20   42 1    
     3   10   32 1    
     4   20   43 1    
     5   20   41 1    
     6   18   20 1    
     7    9   10 ar   
     8    7    9 ar   
     9   11   10 ar   
    10    7    8 1    
    11    6    7 ar   
    12   22   23 2    
    13   21   44 1    
    14    1   25 1    
    15    1   26 1    
    16   11   33 1    
    17   12   11 ar   
    18   22   21 ar   
    19    2   22 ar   
    20   15   21 ar   
    21   18   37 1    
    22   16   18 1    
    23   18   19 1    
    24   17   34 1    
    25    2    1 1    
    26    1   24 1    
    27   15   16 1    
    28   16   17 1    
    29    3    2 ar   
    30   14   15 ar   
    31    6   12 ar   
    32    4    6 1    
    33   19   39 1    
    34   12   13 1    
    35   19   40 1    
    36   19   38 1    
    37    3   14 ar   
    38    4    3 1    
    39   17   35 1    
    40   17   36 1    
    41    5   29 1    
    42    4    5 1    
    43    4   27 1    
    44    5   30 1    
    45    5   28 1    
@<TRIPOS>SUBSTRUCTURE
     1 ****       42 TEMP              0 ****  ****    0 ROOT 
