#	Name:			YSQ-2012-CMC-152-17R
#	Creating user name:	Administrator
#	Creation time:		Sun Jul 05 16:40:37 2020

#	Modifying user name:	Administrator
#	Modification time:	Sun Jul 05 16:40:47 2020

@<TRIPOS>MOLECULE
YSQ-2012-CMC-152-17R
   42    44     1     0     0
SMALL
MULLIKEN_CHARGES
INVALID_CHARGES
Gaussian 16 #p B3LYP/6-31G* opt
@<TRIPOS>ATOM
      1 C          -2.430509   -2.113303    0.818185 C.3       1 <1>        -0.546100 
      2 C          -1.212166   -1.262173    0.549043 C.ar      1 <1>         0.105900 
      3 C           0.044535   -1.877273    0.569614 C.ar      1 <1>         0.017000 
      4 N           1.211939   -1.265090    0.367458 N.ar      1 <1>        -0.472200 
      5 C           1.118688    0.048179    0.129532 C.ar      1 <1>         0.687400 
      6 N           2.253432    0.806000   -0.092669 N.pl3     1 <1>        -0.766500 
      7 C           3.607644    0.482336   -0.129147 C.ar      1 <1>         0.384200 
      8 C           4.506058    1.537873   -0.391523 C.ar      1 <1>        -0.206200 
      9 C           5.871373    1.315330   -0.447310 C.ar      1 <1>        -0.140800 
     10 C           6.386381    0.022724   -0.241655 C.ar      1 <1>         0.129800 
     11 C           7.795901   -0.214765   -0.297681 C.1       1 <1>         0.225800 
     12 N           8.943460   -0.406550   -0.343358 N.1       1 <1>        -0.487200 
     13 C           5.492277   -1.028842    0.019509 C.ar      1 <1>        -0.153500 
     14 C           4.121390   -0.812348    0.076988 C.ar      1 <1>        -0.161700 
     15 N          -0.017924    0.757393    0.073575 N.ar      1 <1>        -0.539500 
     16 C          -1.180681    0.125850    0.279787 C.ar      1 <1>         0.273500 
     17 C          -2.367854    1.097629    0.173806 C.3       1 <1>        -0.214000 
     18 C          -3.759805    0.521507   -0.142298 C.3       1 <1>        -0.461700 
     19 C          -2.402996    2.029833    1.380673 C.ar      1 <1>         0.017400 
     20 C          -2.643539    1.596135    2.686420 C.ar      1 <1>         0.334700 
     21 F          -2.843946    0.270858    2.892661 F         1 <1>        -0.293800 
     22 C          -2.687997    2.439171    3.788904 C.ar      1 <1>        -0.191200 
     23 C          -2.480932    3.804461    3.590555 C.ar      1 <1>        -0.133800 
     24 C          -2.237292    4.299952    2.310535 C.ar      1 <1>        -0.192800 
     25 C          -2.203258    3.407413    1.245070 C.ar      1 <1>         0.332000 
     26 F          -1.974640    3.905433    0.009774 F         1 <1>        -0.291500 
     27 H          -2.118084   -3.136643    1.051285 H         1 <1>         0.157200 
     28 H          -3.006005   -1.741337    1.669056 H         1 <1>         0.181900 
     29 H          -3.105007   -2.168544   -0.042225 H         1 <1>         0.166100 
     30 H           0.106818   -2.947333    0.767683 H         1 <1>         0.145600 
     31 H           2.021740    1.777389   -0.257694 H         1 <1>         0.345500 
     32 H           4.119961    2.541877   -0.552271 H         1 <1>         0.135500 
     33 H           6.548449    2.138867   -0.650371 H         1 <1>         0.156000 
     34 H           5.880628   -2.029832    0.179608 H         1 <1>         0.156300 
     35 H           3.440589   -1.626816    0.278389 H         1 <1>         0.188100 
     36 H          -2.090973    1.733900   -0.670293 H         1 <1>         0.181700 
     37 H          -3.722603   -0.135697   -1.017489 H         1 <1>         0.154100 
     38 H          -4.436787    1.349201   -0.378155 H         1 <1>         0.158500 
     39 H          -4.190700   -0.031998    0.693336 H         1 <1>         0.165000 
     40 H          -2.879210    2.020568    4.770850 H         1 <1>         0.151800 
     41 H          -2.510519    4.483700    4.436835 H         1 <1>         0.149700 
     42 H          -2.074216    5.355481    2.122898 H         1 <1>         0.151500 
@<TRIPOS>BOND
     1   18   37 1    
     2   18   38 1    
     3   17   36 1    
     4   25   26 1    
     5   17   18 1    
     6   18   39 1    
     7   16   17 1    
     8   17   19 1    
     9    8   32 1    
    10    6   31 1    
    11   16   15 ar   
    12   15    5 ar   
    13    1   29 1    
    14    9   33 1    
    15    2   16 ar   
    16    8    9 ar   
    17    7    8 ar   
    18   19   25 ar   
    19   25   24 ar   
    20    5    6 1    
    21    6    7 1    
    22    9   10 ar   
    23    5    4 ar   
    24    7   14 ar   
    25   19   20 ar   
    26   24   42 1    
    27    2    1 1    
    28    2    3 ar   
    29    4    3 ar   
    30    1   27 1    
    31    1   28 1    
    32   10   11 1    
    33   10   13 ar   
    34   24   23 ar   
    35   14   13 ar   
    36   14   35 1    
    37    3   30 1    
    38   11   12 3    
    39   13   34 1    
    40   20   21 1    
    41   20   22 ar   
    42   23   22 ar   
    43   23   41 1    
    44   22   40 1    
@<TRIPOS>SUBSTRUCTURE
     1 ****       31 TEMP              0 ****  ****    0 ROOT 
