#	Name:			YSQ-2012-CMC-152-14
#	Creating user name:	Administrator
#	Creation time:		Sun Jul 05 16:40:37 2020

#	Modifying user name:	Administrator
#	Modification time:	Sun Jul 05 16:40:47 2020

@<TRIPOS>MOLECULE
YSQ-2012-CMC-152-14
   38    39     1     0     0
SMALL
MULLIKEN_CHARGES
INVALID_CHARGES
Gaussian 16 #p B3LYP/6-31G* opt
@<TRIPOS>ATOM
      1 C           1.159432    2.467278   -2.092571 C.3       1 <1>        -0.449700 
      2 C           1.909674    2.354451   -0.758169 C.3       1 <1>         0.045400 
      3 C           1.339629    3.283636    0.323093 C.3       1 <1>        -0.451600 
      4 N           2.054766    0.939927   -0.308015 N.pl3     1 <1>        -0.468800 
      5 C           3.367403    0.310654   -0.397069 C.3       1 <1>        -0.345400 
      6 C           0.971158    0.178801    0.031382 C.ar      1 <1>         0.797300 
      7 N          -0.234916    0.709913    0.097826 N.ar      1 <1>        -0.587600 
      8 C          -1.265775   -0.106815    0.465282 C.ar      1 <1>         0.345800 
      9 C          -2.614822    0.585709    0.569569 C.3       1 <1>        -0.413000 
     10 C          -3.023646    1.298062   -0.699071 C.ar      1 <1>         0.020600 
     11 C          -3.604320    0.616647   -1.770909 C.ar      1 <1>         0.338400 
     12 F          -3.804355   -0.712449   -1.636230 F         1 <1>        -0.290800 
     13 C          -3.991199    1.232676   -2.954815 C.ar      1 <1>        -0.194300 
     14 C          -3.785413    2.606540   -3.087026 C.ar      1 <1>        -0.135400 
     15 C          -3.207773    3.338786   -2.049355 C.ar      1 <1>        -0.194800 
     16 C          -2.842602    2.668946   -0.886871 C.ar      1 <1>         0.340200 
     17 F          -2.294867    3.386999    0.120916 F         1 <1>        -0.292900 
     18 C          -1.135919   -1.440572    0.753637 C.ar      1 <1>        -0.283500 
     19 C           0.158439   -2.064498    0.687579 C.ar      1 <1>         0.611200 
     20 O           0.463099   -3.230688    0.907060 O.2       1 <1>        -0.539700 
     21 N           1.180881   -1.148504    0.309659 N.ar      1 <1>        -0.718900 
     22 H           1.180861    3.506904   -2.439532 H         1 <1>         0.142700 
     23 H           1.630557    1.844170   -2.861413 H         1 <1>         0.138300 
     24 H           0.117653    2.160895   -1.980454 H         1 <1>         0.191200 
     25 H           2.942288    2.671229   -0.935818 H         1 <1>         0.129700 
     26 H           1.491113    4.324312    0.012048 H         1 <1>         0.137300 
     27 H           1.860697    3.136094    1.275404 H         1 <1>         0.140400 
     28 H           0.273303    3.114708    0.473062 H         1 <1>         0.198100 
     29 H           3.416931   -0.453907   -1.186616 H         1 <1>         0.169700 
     30 H           3.659809   -0.150331    0.555945 H         1 <1>         0.172300 
     31 H           4.111218    1.073233   -0.627846 H         1 <1>         0.179000 
     32 H          -3.377368   -0.149247    0.840914 H         1 <1>         0.167700 
     33 H          -2.555682    1.321700    1.378177 H         1 <1>         0.179100 
     34 H          -4.439853    0.638442   -3.743245 H         1 <1>         0.148400 
     35 H          -4.078705    3.109808   -4.003374 H         1 <1>         0.144600 
     36 H          -3.040536    4.407773   -2.122618 H         1 <1>         0.146700 
     37 H          -1.981120   -2.057906    1.031169 H         1 <1>         0.142600 
     38 H           2.096529   -1.573550    0.246403 H         1 <1>         0.339800 
@<TRIPOS>BOND
     1    1   23 1    
     2   13   34 1    
     3    5   29 1    
     4   14   35 1    
     5   13   14 ar   
     6   11   13 ar   
     7    1   22 1    
     8    1   24 1    
     9    2    1 1    
    10   15   14 ar   
    11    5   31 1    
    12    4    5 1    
    13    5   30 1    
    14   11   12 1    
    15   21   38 1    
    16    2   25 1    
    17   10   11 ar   
    18    4    2 1    
    19    6    4 1    
    20    2    3 1    
    21    6   21 ar   
    22   19   21 ar   
    23   19   20 2    
    24   15   36 1    
    25   16   15 ar   
    26    7    6 ar   
    27   18   19 ar   
    28    8    7 ar   
    29   10   16 ar   
    30    9   10 1    
    31    8   18 ar   
    32   18   37 1    
    33   16   17 1    
    34    8    9 1    
    35    3   26 1    
    36    3   28 1    
    37    3   27 1    
    38    9   32 1    
    39    9   33 1    
@<TRIPOS>SUBSTRUCTURE
     1 ****       38 TEMP              0 ****  ****    0 ROOT 
