#	Name:			YZH-2014-BMC-2535-2-3n
#	Creating user name:	Administrator
#	Creation time:		Sun Jul 05 16:40:43 2020

#	Modifying user name:	Administrator
#	Modification time:	Sun Jul 05 16:40:47 2020

@<TRIPOS>MOLECULE
YZH-2014-BMC-2535-2-3n
   41    43     1     0     0
SMALL
MULLIKEN_CHARGES
INVALID_CHARGES
Gaussian 16 #p B3LYP/6-31G* opt
@<TRIPOS>ATOM
      1 C          -2.499149    1.331470   -1.894383 C.2       1 <1>        -0.341400 
      2 C          -3.076936    1.337495   -0.693173 C.2       1 <1>        -0.088600 
      3 C          -2.648441    0.584533    0.557529 C.3       1 <1>         0.188400 
      4 O          -3.652816   -0.412211    0.804546 O.3       1 <1>        -0.651300 
      5 C          -2.645712    1.516875    1.776605 C.ar      1 <1>         0.101400 
      6 C          -2.003162    2.759226    1.710598 C.ar      1 <1>        -0.152700 
      7 C          -1.981804    3.611373    2.813350 C.ar      1 <1>        -0.158500 
      8 C          -2.609121    3.212433    3.992030 C.ar      1 <1>         0.088100 
      9 BR         -2.588816    4.377914    5.509265 Br        1 <1>        -0.131800 
     10 C          -3.252918    1.981342    4.080970 C.ar      1 <1>        -0.151800 
     11 C          -3.267752    1.136548    2.969991 C.ar      1 <1>        -0.164800 
     12 C          -1.267330   -0.090467    0.451939 C.ar      1 <1>         0.299500 
     13 C          -1.100621   -1.448273    0.751828 C.ar      1 <1>        -0.204200 
     14 C           0.195087   -1.944782    0.665059 C.ar      1 <1>         0.074100 
     15 N           1.249359   -1.199997    0.317485 N.ar      1 <1>        -0.475500 
     16 C           0.979425    0.086963    0.057003 C.ar      1 <1>         0.693500 
     17 N           1.991706    0.949924   -0.307069 N.pl3     1 <1>        -0.767100 
     18 C           3.365536    0.773594   -0.480335 C.ar      1 <1>         0.382700 
     19 C           4.105384    1.913117   -0.857165 C.ar      1 <1>        -0.205700 
     20 C           5.473867    1.840630   -1.056524 C.ar      1 <1>        -0.140100 
     21 C           6.148987    0.619160   -0.884189 C.ar      1 <1>         0.131500 
     22 C           7.562528    0.535922   -1.089620 C.1       1 <1>         0.227700 
     23 N           8.712644    0.469384   -1.257857 N.1       1 <1>        -0.484100 
     24 C           5.412235   -0.515832   -0.508049 C.ar      1 <1>        -0.153000 
     25 C           4.039168   -0.449558   -0.306514 C.ar      1 <1>        -0.159700 
     26 N          -0.232082    0.676626    0.107246 N.ar      1 <1>        -0.545800 
     27 H          -2.955927    1.857478   -2.728376 H         1 <1>         0.152800 
     28 H          -1.556375    0.832219   -2.090646 H         1 <1>         0.158000 
     29 H          -4.018582    1.865330   -0.547602 H         1 <1>         0.150900 
     30 H          -3.821741   -0.853452   -0.043666 H         1 <1>         0.398200 
     31 H          -1.511920    3.060356    0.791435 H         1 <1>         0.152200 
     32 H          -1.487023    4.574944    2.757144 H         1 <1>         0.153400 
     33 H          -3.739431    1.684913    5.003894 H         1 <1>         0.155200 
     34 H          -3.774702    0.180907    3.029723 H         1 <1>         0.164700 
     35 H          -1.934160   -2.067003    1.053887 H         1 <1>         0.158200 
     36 H           0.406405   -2.989740    0.885635 H         1 <1>         0.157000 
     37 H           1.642713    1.887480   -0.460936 H         1 <1>         0.345500 
     38 H           3.594350    2.863534   -0.993168 H         1 <1>         0.136500 
     39 H           6.028874    2.727062   -1.346193 H         1 <1>         0.158600 
     40 H           5.925579   -1.462547   -0.371967 H         1 <1>         0.158700 
     41 H           3.479985   -1.327049   -0.016221 H         1 <1>         0.189300 
@<TRIPOS>BOND
     1    1   27 1    
     2    1   28 1    
     3    2    1 2    
     4    2   29 1    
     5   19   38 1    
     6   20   39 1    
     7    6   31 1    
     8    3    2 1    
     9    7   32 1    
    10   17   37 1    
    11   19   20 ar   
    12   18   19 ar   
    13   20   21 ar   
    14    6    7 ar   
    15    5    6 ar   
    16    7    8 ar   
    17   17   18 1    
    18   16   17 1    
    19   26   16 ar   
    20   12   26 ar   
    21    3    5 1    
    22    3   12 1    
    23    3    4 1    
    24   18   25 ar   
    25    5   11 ar   
    26   21   22 1    
    27   21   24 ar   
    28    8    9 1    
    29    8   10 ar   
    30   22   23 3    
    31    4   30 1    
    32   16   15 ar   
    33   12   13 ar   
    34   11   10 ar   
    35   11   34 1    
    36   25   24 ar   
    37   25   41 1    
    38   10   33 1    
    39   24   40 1    
    40   15   14 ar   
    41   13   14 ar   
    42   13   35 1    
    43   14   36 1    
@<TRIPOS>SUBSTRUCTURE
     1 ****       27 TEMP              0 ****  ****    0 ROOT 
