#	Name:			YZH-2014-BMC-2535-2-3r
#	Creating user name:	Administrator
#	Creation time:		Sun Jul 05 16:40:44 2020

#	Modifying user name:	Administrator
#	Modification time:	Sun Jul 05 16:40:47 2020

@<TRIPOS>MOLECULE
YZH-2014-BMC-2535-2-3r
   55    57     1     0     0
SMALL
MULLIKEN_CHARGES
INVALID_CHARGES
Gaussian 16 #p B3LYP/6-31G* opt
@<TRIPOS>ATOM
      1 C           0.407711   -3.405373    0.937762 C.3       1 <1>        -0.514700 
      2 C           0.154082   -1.948866    0.655942 C.ar      1 <1>         0.346100 
      3 C          -1.113964   -1.381104    0.774115 C.ar      1 <1>        -0.239400 
      4 C          -1.243335   -0.017184    0.486899 C.ar      1 <1>         0.319000 
      5 C          -2.596711    0.705927    0.606213 C.3       1 <1>         0.202000 
      6 C          -2.435483    1.935164    1.517880 C.3       1 <1>        -0.431100 
      7 O          -3.527182   -0.146610    1.288267 O.3       1 <1>        -0.641400 
      8 C          -3.183264    1.118456   -0.758713 C.ar      1 <1>         0.081800 
      9 C          -2.412088    1.419304   -1.884821 C.ar      1 <1>        -0.174700 
     10 C          -3.011621    1.812086   -3.084404 C.ar      1 <1>        -0.202700 
     11 C          -4.400903    1.926911   -3.215535 C.ar      1 <1>         0.186800 
     12 C          -5.091801    2.353955   -4.522543 C.3       1 <1>         0.016000 
     13 C          -5.910281    3.643475   -4.274396 C.3       1 <1>        -0.439100 
     14 C          -4.083927    2.635417   -5.653053 C.3       1 <1>        -0.457000 
     15 C          -6.042380    1.227575   -4.993534 C.3       1 <1>        -0.439100 
     16 C          -5.166718    1.632426   -2.075265 C.ar      1 <1>        -0.189900 
     17 C          -4.577334    1.239670   -0.877349 C.ar      1 <1>        -0.192600 
     18 N          -0.185425    0.715695    0.130183 N.ar      1 <1>        -0.562700 
     19 C           0.998172    0.074326    0.048669 C.ar      1 <1>         0.692700 
     20 N           2.038284    0.905122   -0.323274 N.pl3     1 <1>        -0.772400 
     21 C           3.399621    0.680510   -0.522031 C.ar      1 <1>         0.383100 
     22 C           4.029126   -0.570394   -0.378929 C.ar      1 <1>        -0.160200 
     23 C           5.395112   -0.685978   -0.603734 C.ar      1 <1>        -0.153700 
     24 C           6.169784    0.425814   -0.973676 C.ar      1 <1>         0.130600 
     25 C           7.575583    0.291703   -1.202542 C.1       1 <1>         0.226400 
     26 N           8.719722    0.183546   -1.389444 N.1       1 <1>        -0.486000 
     27 C           5.539265    1.674860   -1.115735 C.ar      1 <1>        -0.140600 
     28 C           4.178094    1.796672   -0.893119 C.ar      1 <1>        -0.206300 
     29 N           1.222327   -1.220350    0.287813 N.ar      1 <1>        -0.533300 
     30 H           0.823348   -3.894942    0.049764 H         1 <1>         0.178900 
     31 H          -0.507129   -3.926389    1.232281 H         1 <1>         0.159800 
     32 H           1.148099   -3.511632    1.738613 H         1 <1>         0.180400 
     33 H          -1.960649   -1.965068    1.107458 H         1 <1>         0.140400 
     34 H          -3.394183    2.454314    1.599671 H         1 <1>         0.158000 
     35 H          -2.119951    1.616156    2.516777 H         1 <1>         0.156100 
     36 H          -1.686121    2.614499    1.107460 H         1 <1>         0.167800 
     37 H          -3.897408   -0.758268    0.630900 H         1 <1>         0.390900 
     38 H          -1.331603    1.357976   -1.831147 H         1 <1>         0.147900 
     39 H          -2.365133    2.028294   -3.928043 H         1 <1>         0.127800 
     40 H          -6.415147    3.957728   -5.196008 H         1 <1>         0.140100 
     41 H          -6.678117    3.498457   -3.507300 H         1 <1>         0.143300 
     42 H          -5.260797    4.463028   -3.946203 H         1 <1>         0.148100 
     43 H          -4.621277    2.934583   -6.559968 H         1 <1>         0.142900 
     44 H          -3.396292    3.448407   -5.393884 H         1 <1>         0.146000 
     45 H          -3.488777    1.748851   -5.899683 H         1 <1>         0.146000 
     46 H          -6.549900    1.519658   -5.921011 H         1 <1>         0.140400 
     47 H          -6.813300    1.006241   -4.247873 H         1 <1>         0.142500 
     48 H          -5.488157    0.301886   -5.186562 H         1 <1>         0.147000 
     49 H          -6.249926    1.710915   -2.115066 H         1 <1>         0.127000 
     50 H          -5.206222    1.031551   -0.016983 H         1 <1>         0.141800 
     51 H           1.721502    1.856974   -0.457218 H         1 <1>         0.344300 
     52 H           3.439519   -1.429413   -0.093846 H         1 <1>         0.185500 
     53 H           5.873609   -1.653917   -0.491374 H         1 <1>         0.156600 
     54 H           6.123366    2.543951   -1.400643 H         1 <1>         0.157100 
     55 H           3.702053    2.768062   -1.006089 H         1 <1>         0.135800 
@<TRIPOS>BOND
     1    6   34 1    
     2    6   36 1    
     3    6   35 1    
     4    5    6 1    
     5   28   55 1    
     6   27   54 1    
     7   13   42 1    
     8   20   51 1    
     9   28   27 ar   
    10   21   28 ar   
    11   27   24 ar   
    12    5    7 1    
    13    8    5 1    
    14    5    4 1    
    15   13   41 1    
    16   17   50 1    
    17    4   18 ar   
    18   18   19 ar   
    19   20   21 1    
    20   19   20 1    
    21   13   40 1    
    22   12   13 1    
    23    7   37 1    
    24   17    8 ar   
    25   16   17 ar   
    26    9    8 ar   
    27   21   22 ar   
    28    4    3 ar   
    29   16   49 1    
    30   11   16 ar   
    31   19   29 ar   
    32    9   38 1    
    33   10    9 ar   
    34   24   25 1    
    35   23   24 ar   
    36   14   44 1    
    37   11   10 ar   
    38   10   39 1    
    39   12   11 1    
    40   25   26 3    
    41   22   23 ar   
    42   22   52 1    
    43   12   14 1    
    44   12   15 1    
    45    3   33 1    
    46    3    2 ar   
    47   23   53 1    
    48   29    2 ar   
    49   14   43 1    
    50   14   45 1    
    51    2    1 1    
    52   15   47 1    
    53   15   46 1    
    54   15   48 1    
    55    1   32 1    
    56    1   31 1    
    57    1   30 1    
@<TRIPOS>SUBSTRUCTURE
     1 ****       50 TEMP              0 ****  ****    0 ROOT 
