#	Name:			YZH-2014-BMC-2535-2-3j
#	Creating user name:	Administrator
#	Creation time:		Sun Jul 05 16:40:42 2020

#	Modifying user name:	Administrator
#	Modification time:	Sun Jul 05 16:40:47 2020

@<TRIPOS>MOLECULE
YZH-2014-BMC-2535-2-3j
   40    42     1     0     0
SMALL
MULLIKEN_CHARGES
INVALID_CHARGES
Gaussian 16 #p B3LYP/6-31G* opt
@<TRIPOS>ATOM
      1 C          -2.845957    0.561527   -1.826529 C.3       1 <1>        -0.449000 
      2 C          -2.434994    0.919131   -0.381314 C.3       1 <1>         0.192400 
      3 O          -2.103796    2.297284   -0.340351 O.3       1 <1>        -0.663400 
      4 C          -3.551299    0.664593    0.642821 C.ar      1 <1>         0.131800 
      5 C          -4.535882   -0.315110    0.464745 C.ar      1 <1>        -0.185100 
      6 C          -5.508813   -0.530441    1.443612 C.ar      1 <1>        -0.136800 
      7 C          -5.519234    0.225227    2.614363 C.ar      1 <1>        -0.143000 
      8 C          -4.538516    1.201798    2.780620 C.ar      1 <1>         0.081000 
      9 BR         -4.538253    2.259346    4.377283 Br        1 <1>        -0.129400 
     10 C          -3.563636    1.430648    1.816206 C.ar      1 <1>        -0.179500 
     11 C          -1.185069    0.088331   -0.016450 C.ar      1 <1>         0.346800 
     12 C          -1.218991   -1.279470    0.281492 C.ar      1 <1>        -0.192500 
     13 C           0.004649   -1.884308    0.534733 C.ar      1 <1>         0.070900 
     14 N           1.173494   -1.231404    0.508100 N.ar      1 <1>        -0.477400 
     15 C           1.099667    0.072116    0.218362 C.ar      1 <1>         0.708400 
     16 N           2.237114    0.844946    0.168892 N.pl3     1 <1>        -0.765900 
     17 C           3.587658    0.546629    0.373655 C.ar      1 <1>         0.381400 
     18 C           4.079158   -0.730210    0.699496 C.ar      1 <1>        -0.158500 
     19 C           5.444127   -0.917449    0.880806 C.ar      1 <1>        -0.152700 
     20 C           6.349278    0.147479    0.744798 C.ar      1 <1>         0.132700 
     21 C           7.752645   -0.060228    0.933553 C.1       1 <1>         0.229100 
     22 N           8.894356   -0.228092    1.086278 N.1       1 <1>        -0.481900 
     23 C           5.854953    1.422922    0.419461 C.ar      1 <1>        -0.139700 
     24 C           4.495618    1.615841    0.237507 C.ar      1 <1>        -0.205800 
     25 N          -0.034403    0.758087   -0.048788 N.ar      1 <1>        -0.609000 
     26 H          -3.732714    1.139219   -2.102877 H         1 <1>         0.174200 
     27 H          -3.055499   -0.504118   -1.961380 H         1 <1>         0.142700 
     28 H          -2.029087    0.835244   -2.501263 H         1 <1>         0.157600 
     29 H          -1.126251    2.330922   -0.365439 H         1 <1>         0.408800 
     30 H          -4.563214   -0.910228   -0.441967 H         1 <1>         0.132600 
     31 H          -6.270548   -1.289869    1.289799 H         1 <1>         0.141800 
     32 H          -6.272700    0.067027    3.378006 H         1 <1>         0.155500 
     33 H          -2.825016    2.210314    1.951143 H         1 <1>         0.168600 
     34 H          -2.147769   -1.833703    0.332691 H         1 <1>         0.156900 
     35 H           0.062294   -2.943992    0.776460 H         1 <1>         0.161100 
     36 H           2.030390    1.809168   -0.057950 H         1 <1>         0.345200 
     37 H           3.389392   -1.554554    0.806292 H         1 <1>         0.190500 
     38 H           5.817746   -1.905073    1.132167 H         1 <1>         0.160500 
     39 H           6.541675    2.256114    0.311419 H         1 <1>         0.160700 
     40 H           4.124896    2.607028   -0.013645 H         1 <1>         0.138900 
@<TRIPOS>BOND
     1   13   35 1    
     2   19   38 1    
     3   13   14 ar   
     4   12   13 ar   
     5   12   34 1    
     6    6   31 1    
     7   18   37 1    
     8    7   32 1    
     9   15   14 ar   
    10   11   12 ar   
    11    6    7 ar   
    12    5    6 ar   
    13   18   19 ar   
    14   19   20 ar   
    15    8    7 ar   
    16   17   18 ar   
    17    5   30 1    
    18   21   22 3    
    19    4    5 ar   
    20   20   21 1    
    21    8    9 1    
    22   10    8 ar   
    23   20   23 ar   
    24   25   15 ar   
    25   15   16 1    
    26   11   25 ar   
    27    2   11 1    
    28    4   10 ar   
    29    2    4 1    
    30   16   17 1    
    31   17   24 ar   
    32   10   33 1    
    33    1   27 1    
    34   16   36 1    
    35    2    1 1    
    36    2    3 1    
    37   23   24 ar   
    38   23   39 1    
    39    1   28 1    
    40    1   26 1    
    41   24   40 1    
    42    3   29 1    
@<TRIPOS>SUBSTRUCTURE
     1 ****       22 TEMP              0 ****  ****    0 ROOT 
