#	Name:			YZH-2014-BMC-2535-2-3l
#	Creating user name:	Administrator
#	Creation time:		Sun Jul 05 16:40:42 2020

#	Modifying user name:	Administrator
#	Modification time:	Sun Jul 05 16:40:47 2020

@<TRIPOS>MOLECULE
YZH-2014-BMC-2535-2-3l
   43    45     1     0     0
SMALL
MULLIKEN_CHARGES
INVALID_CHARGES
Gaussian 16 #p B3LYP/6-31G* opt
@<TRIPOS>ATOM
      1 C           0.087339   -3.369537    0.848136 C.3       1 <1>        -0.514600 
      2 C           0.001419   -1.889832    0.590302 C.ar      1 <1>         0.340000 
      3 C          -1.211127   -1.203224    0.608331 C.ar      1 <1>        -0.228600 
      4 C          -1.174610    0.170722    0.350278 C.ar      1 <1>         0.348700 
      5 C          -2.420890    1.082457    0.392038 C.3       1 <1>         0.190200 
      6 C          -2.757060    1.359883    1.873950 C.3       1 <1>        -0.449200 
      7 O          -2.108636    2.318428   -0.234172 O.3       1 <1>        -0.664700 
      8 C          -3.578868    0.440158   -0.381940 C.ar      1 <1>         0.138500 
      9 C          -3.639902    0.612266   -1.772716 C.ar      1 <1>        -0.162000 
     10 C          -4.650852    0.024916   -2.529092 C.ar      1 <1>        -0.197800 
     11 C          -5.612090   -0.742838   -1.880482 C.ar      1 <1>         0.382200 
     12 F          -6.596478   -1.314057   -2.606185 F         1 <1>        -0.297300 
     13 C          -5.589322   -0.931530   -0.505663 C.ar      1 <1>        -0.204000 
     14 C          -4.568193   -0.334346    0.237157 C.ar      1 <1>        -0.193000 
     15 N          -0.026872    0.797463    0.096635 N.ar      1 <1>        -0.615200 
     16 C           1.097569    0.047372    0.097139 C.ar      1 <1>         0.706000 
     17 N           2.238355    0.770274   -0.179169 N.pl3     1 <1>        -0.771000 
     18 C           3.583205    0.406408   -0.276625 C.ar      1 <1>         0.382000 
     19 C           4.495306    1.437609   -0.579811 C.ar      1 <1>        -0.206100 
     20 C           5.850566    1.178223   -0.697907 C.ar      1 <1>        -0.140000 
     21 C           6.337909   -0.128044   -0.515264 C.ar      1 <1>         0.132100 
     22 C           7.736830   -0.404474   -0.635147 C.1       1 <1>         0.228100 
     23 N           8.875107   -0.628316   -0.732682 N.1       1 <1>        -0.483100 
     24 C           5.429144   -1.155400   -0.213358 C.ar      1 <1>        -0.153300 
     25 C           4.068343   -0.901453   -0.093689 C.ar      1 <1>        -0.159100 
     26 N           1.165192   -1.263368    0.334232 N.ar      1 <1>        -0.532800 
     27 H          -0.894776   -3.803007    1.053731 H         1 <1>         0.162300 
     28 H           0.747376   -3.566069    1.700612 H         1 <1>         0.181200 
     29 H           0.523297   -3.878174   -0.019076 H         1 <1>         0.183100 
     30 H          -2.145831   -1.718067    0.793787 H         1 <1>         0.150900 
     31 H          -2.944142    0.447233    2.448642 H         1 <1>         0.141600 
     32 H          -3.637722    2.006446    1.929939 H         1 <1>         0.171800 
     33 H          -1.912711    1.882485    2.333854 H         1 <1>         0.155200 
     34 H          -1.131666    2.368975   -0.230524 H         1 <1>         0.406600 
     35 H          -2.893888    1.233573   -2.254842 H         1 <1>         0.154900 
     36 H          -4.707088    0.158394   -3.604639 H         1 <1>         0.148700 
     37 H          -6.362385   -1.527292   -0.031408 H         1 <1>         0.146800 
     38 H          -4.564489   -0.474942    1.313237 H         1 <1>         0.134400 
     39 H           2.035227    1.748798   -0.337511 H         1 <1>         0.343800 
     40 H           4.130423    2.452178   -0.723310 H         1 <1>         0.137800 
     41 H           6.539816    1.983040   -0.931686 H         1 <1>         0.159700 
     42 H           5.797164   -2.166626   -0.071117 H         1 <1>         0.158700 
     43 H           3.374985   -1.696262    0.138579 H         1 <1>         0.186500 
@<TRIPOS>BOND
     1   10   36 1    
     2   11   12 1    
     3   10   11 ar   
     4    9   10 ar   
     5    9   35 1    
     6   13   11 ar   
     7    8    9 ar   
     8   22   23 3    
     9   20   41 1    
    10   21   22 1    
    11   20   21 ar   
    12   19   20 ar   
    13   24   21 ar   
    14   19   40 1    
    15   18   19 ar   
    16   24   42 1    
    17   25   24 ar   
    18   18   25 ar   
    19   17   18 1    
    20   25   43 1    
    21   17   39 1    
    22   13   37 1    
    23   14   13 ar   
    24    1   29 1    
    25   16   17 1    
    26    8   14 ar   
    27    5    8 1    
    28    7   34 1    
    29    5    7 1    
    30   16   15 ar   
    31   26   16 ar   
    32    4   15 ar   
    33    2   26 ar   
    34    4    5 1    
    35    3    4 ar   
    36   14   38 1    
    37    2    3 ar   
    38    2    1 1    
    39    5    6 1    
    40    3   30 1    
    41    1   27 1    
    42    1   28 1    
    43    6   32 1    
    44    6   33 1    
    45    6   31 1    
@<TRIPOS>SUBSTRUCTURE
     1 ****       41 TEMP              0 ****  ****    0 ROOT 
