#	Name:			YZH-2014-BMC-3220-2-7o
#	Creating user name:	Administrator
#	Creation time:		Sun Jul 05 16:40:46 2020

#	Modifying user name:	Administrator
#	Modification time:	Sun Jul 05 16:40:47 2020

@<TRIPOS>MOLECULE
YZH-2014-BMC-3220-2-7o
   51    53     1     0     0
SMALL
MULLIKEN_CHARGES
INVALID_CHARGES
Gaussian 16 #p B3LYP/6-31G* opt
@<TRIPOS>ATOM
      1 C          -2.219728   -2.596999    0.601652 C.3       1 <1>        -0.550600 
      2 C          -1.105567   -1.593721    0.450068 C.ar      1 <1>         0.119500 
      3 C           0.227510   -1.959265    0.634508 C.ar      1 <1>         0.022500 
      4 N           1.267294   -1.130806    0.501941 N.ar      1 <1>        -0.472000 
      5 C           0.957561    0.125900    0.162935 C.ar      1 <1>         0.693900 
      6 N           1.946652    1.073174   -0.007790 N.pl3     1 <1>        -0.767200 
      7 C           3.335537    1.012881    0.099788 C.ar      1 <1>         0.383800 
      8 C           4.057478   -0.148871    0.432166 C.ar      1 <1>        -0.160600 
      9 C           5.443557   -0.100730    0.513017 C.ar      1 <1>        -0.153100 
     10 C           6.146818    1.090372    0.268999 C.ar      1 <1>         0.130900 
     11 C           7.574443    1.125571    0.356726 C.1       1 <1>         0.226900 
     12 N           8.736134    1.155861    0.428222 N.1       1 <1>        -0.485300 
     13 C           5.423590    2.249888   -0.063332 C.ar      1 <1>        -0.140300 
     14 C           4.042036    2.208461   -0.145642 C.ar      1 <1>        -0.205500 
     15 N          -0.283255    0.606670   -0.038590 N.ar      1 <1>        -0.536800 
     16 C          -1.299166   -0.238522    0.103996 C.ar      1 <1>         0.329200 
     17 C          -2.699164    0.311243   -0.127506 C.3       1 <1>        -0.415100 
     18 CL         -3.122950   -0.026837   -1.904291 Cl        1 <1>        -0.074200 
     19 C          -2.921697    1.757348    0.228285 C.ar      1 <1>         0.207500 
     20 C          -2.370285    2.817159   -0.497656 C.ar      1 <1>        -0.138400 
     21 C          -2.593633    4.136740   -0.108620 C.ar      1 <1>        -0.207400 
     22 C          -3.368013    4.454584    1.017967 C.ar      1 <1>         0.186300 
     23 C          -3.632947    5.901228    1.472104 C.3       1 <1>         0.014300 
     24 C          -2.943617    6.936773    0.563474 C.3       1 <1>        -0.457700 
     25 C          -5.155425    6.176787    1.448349 C.3       1 <1>        -0.439100 
     26 C          -3.099972    6.093107    2.912081 C.3       1 <1>        -0.439000 
     27 C          -3.918085    3.380991    1.735838 C.ar      1 <1>        -0.186800 
     28 C          -3.705768    2.060549    1.347337 C.ar      1 <1>        -0.181500 
     29 H          -2.889859   -2.349966    1.435250 H         1 <1>         0.166900 
     30 H          -1.811094   -3.593016    0.799124 H         1 <1>         0.166600 
     31 H          -2.832684   -2.660915   -0.304650 H         1 <1>         0.189600 
     32 H           0.474491   -2.985119    0.906920 H         1 <1>         0.149700 
     33 H           1.557806    1.974781   -0.253075 H         1 <1>         0.347800 
     34 H           3.524473   -1.069151    0.622060 H         1 <1>         0.188400 
     35 H           5.993777   -1.000462    0.769842 H         1 <1>         0.157800 
     36 H           5.952001    3.178093   -0.255142 H         1 <1>         0.157500 
     37 H           3.493573    3.111564   -0.403606 H         1 <1>         0.136300 
     38 H          -3.413954   -0.303522    0.419284 H         1 <1>         0.198800 
     39 H          -1.772857    2.609327   -1.378230 H         1 <1>         0.147700 
     40 H          -2.152504    4.927181   -0.705497 H         1 <1>         0.129900 
     41 H          -3.158061    7.947324    0.928550 H         1 <1>         0.144100 
     42 H          -1.854616    6.813284    0.556330 H         1 <1>         0.144700 
     43 H          -3.302433    6.876910   -0.470218 H         1 <1>         0.148000 
     44 H          -5.361371    7.203390    1.774816 H         1 <1>         0.141200 
     45 H          -5.560690    6.053585    0.437549 H         1 <1>         0.150000 
     46 H          -5.703195    5.500212    2.112540 H         1 <1>         0.143100 
     47 H          -2.020217    5.911315    2.958587 H         1 <1>         0.147700 
     48 H          -3.287130    7.118466    3.253476 H         1 <1>         0.141500 
     49 H          -3.583989    5.413085    3.620780 H         1 <1>         0.143200 
     50 H          -4.533063    3.570977    2.610908 H         1 <1>         0.128900 
     51 H          -4.157289    1.256766    1.925303 H         1 <1>         0.126100 
@<TRIPOS>BOND
     1   20   39 1    
     2   17   18 1    
     3   24   43 1    
     4   21   40 1    
     5   14   37 1    
     6   20   21 ar   
     7   19   20 ar   
     8   13   36 1    
     9   21   22 ar   
    10   24   42 1    
    11   24   41 1    
    12   23   24 1    
    13   25   45 1    
    14    6   33 1    
    15   14   13 ar   
    16    7   14 ar   
    17   13   10 ar   
    18    6    7 1    
    19    5    6 1    
    20   17   19 1    
    21   16   17 1    
    22   17   38 1    
    23   15    5 ar   
    24   16   15 ar   
    25    7    8 ar   
    26   19   28 ar   
    27   10   11 1    
    28    9   10 ar   
    29   11   12 3    
    30    4    5 ar   
    31   22   23 1    
    32   22   27 ar   
    33    2   16 ar   
    34   23   25 1    
    35   25   44 1    
    36   25   46 1    
    37    1   31 1    
    38   23   26 1    
    39    8    9 ar   
    40    8   34 1    
    41    9   35 1    
    42    3    4 ar   
    43    2    3 ar   
    44    2    1 1    
    45   28   27 ar   
    46   28   51 1    
    47    3   32 1    
    48   27   50 1    
    49    1   30 1    
    50    1   29 1    
    51   26   47 1    
    52   26   48 1    
    53   26   49 1    
@<TRIPOS>SUBSTRUCTURE
     1 ****       45 TEMP              0 ****  ****    0 ROOT 
