#	Name:			YZH-2014-BMC-3220-2-7q
#	Creating user name:	Administrator
#	Creation time:		Sun Jul 05 16:40:46 2020

#	Modifying user name:	Administrator
#	Modification time:	Sun Jul 05 16:40:47 2020

@<TRIPOS>MOLECULE
YZH-2014-BMC-3220-2-7q
   39    41     1     0     0
SMALL
MULLIKEN_CHARGES
INVALID_CHARGES
Gaussian 16 #p B3LYP/6-31G* opt
@<TRIPOS>ATOM
      1 C          -2.219704   -2.598167    0.614456 C.3       1 <1>        -0.551100 
      2 C          -1.106325   -1.595060    0.456183 C.ar      1 <1>         0.119500 
      3 C           0.228401   -1.959369    0.635183 C.ar      1 <1>         0.023600 
      4 N           1.266379   -1.130202    0.498453 N.ar      1 <1>        -0.470700 
      5 C           0.956188    0.127161    0.160799 C.ar      1 <1>         0.695700 
      6 N           1.943997    1.073846   -0.010648 N.pl3     1 <1>        -0.766900 
      7 C           3.334294    1.012709    0.092931 C.ar      1 <1>         0.383100 
      8 C           4.057042   -0.150698    0.416196 C.ar      1 <1>        -0.160300 
      9 C           5.443456   -0.102878    0.492304 C.ar      1 <1>        -0.152900 
     10 C           6.145431    1.089684    0.252256 C.ar      1 <1>         0.131500 
     11 C           7.573511    1.124203    0.334677 C.1       1 <1>         0.227700 
     12 N           8.735411    1.153516    0.401465 N.1       1 <1>        -0.484000 
     13 C           5.421005    2.250957   -0.070612 C.ar      1 <1>        -0.140100 
     14 C           4.039164    2.209778   -0.148180 C.ar      1 <1>        -0.205500 
     15 N          -0.286694    0.606274   -0.037654 N.ar      1 <1>        -0.540500 
     16 C          -1.300264   -0.240943    0.108999 C.ar      1 <1>         0.329200 
     17 C          -2.701055    0.308240   -0.120633 C.3       1 <1>        -0.416900 
     18 CL         -3.144261   -0.043491   -1.886177 Cl        1 <1>        -0.065400 
     19 C          -2.910461    1.762076    0.217165 C.ar      1 <1>         0.208800 
     20 C          -3.674244    2.083548    1.344392 C.ar      1 <1>        -0.178600 
     21 C          -3.876784    3.411255    1.724401 C.ar      1 <1>        -0.146400 
     22 C          -3.313513    4.424051    0.954522 C.ar      1 <1>         0.086700 
     23 BR         -3.587640    6.248352    1.453241 Br        1 <1>        -0.122200 
     24 C          -2.557761    4.130287   -0.181367 C.ar      1 <1>        -0.159100 
     25 C          -2.357439    2.801424   -0.543101 C.ar      1 <1>        -0.133000 
     26 H          -2.836134   -2.665281   -0.289150 H         1 <1>         0.189900 
     27 H          -1.810027   -3.593386    0.813171 H         1 <1>         0.168600 
     28 H          -2.886649   -2.349400    1.450269 H         1 <1>         0.167100 
     29 H           0.477322   -2.984826    0.907309 H         1 <1>         0.151700 
     30 H           1.556136    1.977059   -0.251581 H         1 <1>         0.347800 
     31 H           3.525318   -1.072297    0.603223 H         1 <1>         0.188500 
     32 H           5.994777   -1.003914    0.742115 H         1 <1>         0.158600 
     33 H           5.948627    3.180357   -0.258774 H         1 <1>         0.159000 
     34 H           3.489801    3.114482   -0.398407 H         1 <1>         0.137600 
     35 H          -3.413828   -0.294305    0.442013 H         1 <1>         0.201300 
     36 H          -4.120887    1.291686    1.941093 H         1 <1>         0.139600 
     37 H          -4.470000    3.652078    2.599506 H         1 <1>         0.159000 
     38 H          -2.135016    4.933201   -0.775353 H         1 <1>         0.158000 
     39 H          -1.777054    2.568142   -1.428131 H         1 <1>         0.160800 
@<TRIPOS>BOND
     1   25   39 1    
     2   17   18 1    
     3   24   38 1    
     4   25   24 ar   
     5   19   25 ar   
     6   14   34 1    
     7   24   22 ar   
     8   13   33 1    
     9    6   30 1    
    10   14   13 ar   
    11    7   14 ar   
    12   13   10 ar   
    13    6    7 1    
    14    5    6 1    
    15   17   19 1    
    16   16   17 1    
    17   17   35 1    
    18   15    5 ar   
    19   16   15 ar   
    20    7    8 ar   
    21   19   20 ar   
    22   10   11 1    
    23    9   10 ar   
    24   11   12 3    
    25    4    5 ar   
    26   22   23 1    
    27   22   21 ar   
    28    2   16 ar   
    29    1   26 1    
    30    8    9 ar   
    31    8   31 1    
    32    9   32 1    
    33    3    4 ar   
    34    2    3 ar   
    35    2    1 1    
    36   20   21 ar   
    37   20   36 1    
    38    3   29 1    
    39    1   27 1    
    40    1   28 1    
    41   21   37 1    
@<TRIPOS>SUBSTRUCTURE
     1 ****       30 TEMP              0 ****  ****    0 ROOT 
