#	Name:			YZH-2014-BMC-3220-2-7g
#	Creating user name:	Administrator
#	Creation time:		Sun Jul 05 16:40:45 2020

#	Modifying user name:	Administrator
#	Modification time:	Sun Jul 05 16:40:47 2020

@<TRIPOS>MOLECULE
YZH-2014-BMC-3220-2-7g
   36    38     1     0     0
SMALL
MULLIKEN_CHARGES
INVALID_CHARGES
Gaussian 16 #p B3LYP/6-31G* opt
@<TRIPOS>ATOM
      1 N           8.746569    0.722966    1.356796 N.1       1 <1>        -0.483100 
      2 C           7.599694    0.754743    1.159831 C.1       1 <1>         0.228300 
      3 C           6.190093    0.795952    0.917163 C.ar      1 <1>         0.132100 
      4 C           5.403530   -0.357402    1.070438 C.ar      1 <1>        -0.152800 
      5 C           4.033846   -0.331485    0.837996 C.ar      1 <1>        -0.159200 
      6 C           3.415577    0.868428    0.441172 C.ar      1 <1>         0.382200 
      7 N           2.050022    1.005132    0.181734 N.pl3     1 <1>        -0.764500 
      8 C           1.000417    0.114852    0.226976 C.ar      1 <1>         0.694600 
      9 N           1.207781   -1.161849    0.581033 N.ar      1 <1>        -0.472200 
     10 C           0.121889   -1.940359    0.584676 C.ar      1 <1>         0.071600 
     11 C          -1.150617   -1.487175    0.251003 C.ar      1 <1>        -0.199900 
     12 C          -1.247959   -0.135614   -0.095485 C.ar      1 <1>         0.350600 
     13 C          -2.545943    0.579788   -0.440713 C.3       1 <1>        -0.387300 
     14 CL         -3.767486   -0.571558   -1.189240 Cl        1 <1>        -0.060200 
     15 C          -3.162455    1.311516    0.733032 C.ar      1 <1>         0.198500 
     16 C          -3.558919    2.644228    0.580738 C.ar      1 <1>        -0.168800 
     17 C          -4.132699    3.335774    1.647838 C.ar      1 <1>        -0.129400 
     18 C          -4.319236    2.707781    2.878631 C.ar      1 <1>        -0.141900 
     19 C          -3.921160    1.378624    3.020391 C.ar      1 <1>         0.080500 
     20 BR         -4.166215    0.503157    4.702454 Br        1 <1>        -0.119400 
     21 C          -3.346419    0.675322    1.967430 C.ar      1 <1>        -0.177300 
     22 N          -0.182968    0.665730   -0.114409 N.ar      1 <1>        -0.535700 
     23 C           4.204927    2.026170    0.287446 C.ar      1 <1>        -0.205200 
     24 C           5.569609    1.993963    0.520751 C.ar      1 <1>        -0.140000 
     25 H           5.874553   -1.286276    1.376296 H         1 <1>         0.159800 
     26 H           3.436126   -1.223101    0.958708 H         1 <1>         0.189800 
     27 H           1.742325    1.928721   -0.095580 H         1 <1>         0.347700 
     28 H           0.284419   -2.978830    0.867418 H         1 <1>         0.162100 
     29 H          -2.008095   -2.147099    0.242206 H         1 <1>         0.173700 
     30 H          -2.320251    1.296614   -1.230123 H         1 <1>         0.213700 
     31 H          -3.420019    3.141135   -0.375514 H         1 <1>         0.143300 
     32 H          -4.437707    4.370698    1.522708 H         1 <1>         0.149100 
     33 H          -4.763973    3.236754    3.714345 H         1 <1>         0.161200 
     34 H          -3.045355   -0.356640    2.108743 H         1 <1>         0.161200 
     35 H           3.736082    2.958528   -0.018714 H         1 <1>         0.137600 
     36 H           6.163727    2.893664    0.398033 H         1 <1>         0.159300 
@<TRIPOS>BOND
     1   10   28 1    
     2   11   29 1    
     3   11   10 ar   
     4   10    9 ar   
     5    4   25 1    
     6    5   26 1    
     7   12   11 ar   
     8    8    9 ar   
     9   21   34 1    
    10    5    4 ar   
    11    4    3 ar   
    12   19   20 1    
    13    6    5 ar   
    14   13   14 1    
    15   12   22 ar   
    16   13   12 1    
    17   22    8 ar   
    18    8    7 1    
    19    2    1 3    
    20   21   19 ar   
    21   15   21 ar   
    22    3    2 1    
    23    3   24 ar   
    24   19   18 ar   
    25    7    6 1    
    26    6   23 ar   
    27   13   15 1    
    28   13   30 1    
    29    7   27 1    
    30   15   16 ar   
    31   24   23 ar   
    32   24   36 1    
    33   23   35 1    
    34   18   33 1    
    35   18   17 ar   
    36   16   17 ar   
    37   16   31 1    
    38   17   32 1    
@<TRIPOS>SUBSTRUCTURE
     1 ****        1 TEMP              0 ****  ****    0 ROOT 
