#	Name:			YZH-2014-BMC-3220-2-7e
#	Creating user name:	Administrator
#	Creation time:		Sun Jul 05 16:40:45 2020

#	Modifying user name:	Administrator
#	Modification time:	Sun Jul 05 16:40:47 2020

@<TRIPOS>MOLECULE
YZH-2014-BMC-3220-2-7e
   36    38     1     0     0
SMALL
MULLIKEN_CHARGES
INVALID_CHARGES
Gaussian 16 #p B3LYP/6-31G* opt
@<TRIPOS>ATOM
      1 N           8.762011    0.807656    1.142444 N.1       1 <1>        -0.483000 
      2 C           7.610550    0.827197    0.972395 C.1       1 <1>         0.228400 
      3 C           6.195089    0.852966    0.763426 C.ar      1 <1>         0.132100 
      4 C           5.421326   -0.301867    0.963336 C.ar      1 <1>        -0.152800 
      5 C           4.046176   -0.290945    0.764752 C.ar      1 <1>        -0.159000 
      6 C           3.408942    0.894864    0.356018 C.ar      1 <1>         0.382300 
      7 N           2.035850    1.017576    0.131030 N.pl3     1 <1>        -0.765000 
      8 C           0.994832    0.120095    0.211403 C.ar      1 <1>         0.696800 
      9 N           1.226931   -1.155124    0.562451 N.ar      1 <1>        -0.472400 
     10 C           0.151971   -1.945551    0.600461 C.ar      1 <1>         0.079400 
     11 C          -1.131977   -1.502194    0.298419 C.ar      1 <1>        -0.204100 
     12 C          -1.256381   -0.151731   -0.048520 C.ar      1 <1>         0.376600 
     13 C          -2.625429    0.427407   -0.366150 C.3       1 <1>        -0.402300 
     14 CL         -2.624163    1.063136   -2.091190 Cl        1 <1>        -0.053100 
     15 C          -3.103099    1.481899    0.608702 C.ar      1 <1>         0.183400 
     16 C          -2.436098    2.704356    0.771781 C.ar      1 <1>        -0.144400 
     17 C          -2.903792    3.635592    1.696909 C.ar      1 <1>        -0.135500 
     18 C          -4.034107    3.369695    2.473941 C.ar      1 <1>        -0.190700 
     19 C          -4.680698    2.154329    2.296616 C.ar      1 <1>         0.386600 
     20 F          -5.776877    1.877456    3.032593 F         1 <1>        -0.295400 
     21 C          -4.239123    1.208232    1.378316 C.ar      1 <1>        -0.250600 
     22 N          -0.202531    0.659645   -0.089949 N.ar      1 <1>        -0.525900 
     23 C           4.185711    2.053941    0.154880 C.ar      1 <1>        -0.205200 
     24 C           5.556020    2.036698    0.354375 C.ar      1 <1>        -0.139900 
     25 H           5.906828   -1.220051    1.278708 H         1 <1>         0.159500 
     26 H           3.458992   -1.184264    0.919658 H         1 <1>         0.189000 
     27 H           1.715713    1.932614   -0.160388 H         1 <1>         0.348800 
     28 H           0.332873   -2.981273    0.882392 H         1 <1>         0.161000 
     29 H          -1.984980   -2.170317    0.328967 H         1 <1>         0.152000 
     30 H          -3.345690   -0.391189   -0.384839 H         1 <1>         0.199300 
     31 H          -1.558803    2.915495    0.172613 H         1 <1>         0.161100 
     32 H          -2.385391    4.582488    1.816999 H         1 <1>         0.145100 
     33 H          -4.414977    4.081527    3.198595 H         1 <1>         0.153200 
     34 H          -4.788162    0.277351    1.274316 H         1 <1>         0.146500 
     35 H           3.702583    2.975257   -0.162098 H         1 <1>         0.138400 
     36 H           6.139958    2.937271    0.195004 H         1 <1>         0.159600 
@<TRIPOS>BOND
     1   10   28 1    
     2   19   20 1    
     3    4   25 1    
     4   10   11 ar   
     5    9   10 ar   
     6   11   29 1    
     7    5   26 1    
     8   12   11 ar   
     9    8    9 ar   
    10   21   34 1    
    11   21   19 ar   
    12   19   18 ar   
    13    5    4 ar   
    14    4    3 ar   
    15    6    5 ar   
    16   15   21 ar   
    17   18   33 1    
    18   18   17 ar   
    19    2    1 3    
    20    3    2 1    
    21    8   22 ar   
    22    7    8 1    
    23   22   12 ar   
    24   12   13 1    
    25    3   24 ar   
    26   13   30 1    
    27   13   15 1    
    28   15   16 ar   
    29    6    7 1    
    30    6   23 ar   
    31   17   16 ar   
    32   17   32 1    
    33   13   14 1    
    34    7   27 1    
    35   16   31 1    
    36   24   23 ar   
    37   24   36 1    
    38   23   35 1    
@<TRIPOS>SUBSTRUCTURE
     1 ****        1 TEMP              0 ****  ****    0 ROOT 
