#	Name:			YZH-2014-BMC-2535-2-3o
#	Creating user name:	Administrator
#	Creation time:		Sun Jul 05 16:40:43 2020

#	Modifying user name:	Administrator
#	Modification time:	Sun Jul 05 16:40:47 2020

@<TRIPOS>MOLECULE
YZH-2014-BMC-2535-2-3o
   43    45     1     0     0
SMALL
MULLIKEN_CHARGES
INVALID_CHARGES
Gaussian 16 #p B3LYP/6-31G* opt
@<TRIPOS>ATOM
      1 C          -1.984605    1.769197    2.904567 C.3       1 <1>        -0.444000 
      2 C          -2.959546    1.085955    1.941442 C.3       1 <1>        -0.288600 
      3 C          -2.454618    1.036754    0.474100 C.3       1 <1>         0.202100 
      4 O          -2.106352    2.353219    0.045276 O.3       1 <1>        -0.630400 
      5 C          -3.493280    0.451830   -0.501654 C.ar      1 <1>         0.101300 
      6 C          -3.300601    0.669302   -1.875402 C.ar      1 <1>        -0.170400 
      7 C          -4.194941    0.171073   -2.818838 C.ar      1 <1>        -0.148900 
      8 C          -5.303002   -0.557495   -2.386420 C.ar      1 <1>         0.085900 
      9 BR         -6.539791   -1.244149   -3.671827 Br        1 <1>        -0.124200 
     10 C          -5.521190   -0.788483   -1.032131 C.ar      1 <1>        -0.154000 
     11 C          -4.614011   -0.282565   -0.097269 C.ar      1 <1>        -0.190600 
     12 C          -1.172574    0.189801    0.402735 C.ar      1 <1>         0.319200 
     13 C          -1.213944   -1.193127    0.653256 C.ar      1 <1>        -0.193400 
     14 C          -0.005946   -1.870532    0.593007 C.ar      1 <1>         0.065800 
     15 N           1.160292   -1.274794    0.309423 N.ar      1 <1>        -0.476600 
     16 C           1.083959    0.041571    0.082251 C.ar      1 <1>         0.689100 
     17 N           2.216929    0.766225   -0.224695 N.pl3     1 <1>        -0.766000 
     18 C           3.556418    0.405785   -0.365680 C.ar      1 <1>         0.382900 
     19 C           4.047771   -0.903981   -0.209431 C.ar      1 <1>        -0.160500 
     20 C           5.404155   -1.156361   -0.371986 C.ar      1 <1>        -0.153300 
     21 C           6.303826   -0.126012   -0.691484 C.ar      1 <1>         0.130800 
     22 C           7.698395   -0.400472   -0.855532 C.1       1 <1>         0.226800 
     23 N           8.833411   -0.622381   -0.989177 N.1       1 <1>        -0.485700 
     24 C           5.810709    1.181789   -0.847536 C.ar      1 <1>        -0.140700 
     25 C           4.459837    1.439977   -0.686853 C.ar      1 <1>        -0.205300 
     26 N          -0.030652    0.804294    0.119424 N.ar      1 <1>        -0.528600 
     27 H          -1.051655    1.204127    3.000915 H         1 <1>         0.155600 
     28 H          -1.730455    2.772855    2.553963 H         1 <1>         0.166500 
     29 H          -2.431617    1.850095    3.901030 H         1 <1>         0.145600 
     30 H          -3.172143    0.070254    2.294772 H         1 <1>         0.142300 
     31 H          -3.919391    1.621714    1.942495 H         1 <1>         0.137400 
     32 H          -2.938516    2.851953   -0.003124 H         1 <1>         0.393000 
     33 H          -2.440365    1.245860   -2.200990 H         1 <1>         0.165500 
     34 H          -4.035688    0.345283   -3.877473 H         1 <1>         0.159600 
     35 H          -6.389016   -1.351977   -0.706877 H         1 <1>         0.157400 
     36 H          -4.804704   -0.468671    0.954384 H         1 <1>         0.141000 
     37 H          -2.140799   -1.713461    0.862781 H         1 <1>         0.147600 
     38 H           0.041930   -2.942714    0.774961 H         1 <1>         0.154400 
     39 H           1.999307    1.744945   -0.365978 H         1 <1>         0.350500 
     40 H           3.361830   -1.701659    0.036395 H         1 <1>         0.188600 
     41 H           5.776202   -2.168811   -0.249949 H         1 <1>         0.157300 
     42 H           6.492814    1.988903   -1.094435 H         1 <1>         0.157300 
     43 H           4.090016    2.455305   -0.809689 H         1 <1>         0.137700 
@<TRIPOS>BOND
     1   14   38 1    
     2   13   37 1    
     3   14   13 ar   
     4   15   14 ar   
     5   20   41 1    
     6   19   40 1    
     7   12   13 ar   
     8   16   15 ar   
     9   10   35 1    
    10    2   30 1    
    11   11   36 1    
    12   19   20 ar   
    13   20   21 ar   
    14   18   19 ar   
    15   11   10 ar   
    16   10    8 ar   
    17    5   11 ar   
    18    1   27 1    
    19    1   29 1    
    20   12    3 1    
    21   26   12 ar   
    22    2    1 1    
    23    2   31 1    
    24    3    2 1    
    25   16   26 ar   
    26   17   16 1    
    27   22   23 3    
    28    1   28 1    
    29   21   22 1    
    30    8    9 1    
    31   21   24 ar   
    32    8    7 ar   
    33    3    5 1    
    34    5    6 ar   
    35   18   17 1    
    36   18   25 ar   
    37    3    4 1    
    38   17   39 1    
    39    7    6 ar   
    40    7   34 1    
    41    6   33 1    
    42   24   25 ar   
    43   24   42 1    
    44   25   43 1    
    45    4   32 1    
@<TRIPOS>SUBSTRUCTURE
     1 ****       23 TEMP              0 ****  ****    0 ROOT 
