#	Name:			YZH-2014-BMC-3220-2-7l
#	Creating user name:	Administrator
#	Creation time:		Sun Jul 05 16:40:46 2020

#	Modifying user name:	Administrator
#	Modification time:	Sun Jul 05 16:40:47 2020

@<TRIPOS>MOLECULE
YZH-2014-BMC-3220-2-7l
   51    53     1     0     0
SMALL
MULLIKEN_CHARGES
INVALID_CHARGES
Gaussian 16 #p B3LYP/6-31G* opt
@<TRIPOS>ATOM
      1 C           0.349240   -3.411025    0.891237 C.3       1 <1>        -0.514300 
      2 C           0.120309   -1.945293    0.638773 C.ar      1 <1>         0.339600 
      3 C          -1.136528   -1.356499    0.787452 C.ar      1 <1>        -0.233500 
      4 C          -1.231352    0.013368    0.526519 C.ar      1 <1>         0.357300 
      5 C          -2.522607    0.816092    0.578645 C.3       1 <1>        -0.390400 
      6 CL         -3.689993    0.117272    1.825101 Cl        1 <1>        -0.076200 
      7 C          -3.200242    0.958216   -0.764235 C.ar      1 <1>         0.206000 
      8 C          -3.591180    2.221782   -1.210188 C.ar      1 <1>        -0.178500 
      9 C          -4.219287    2.384964   -2.446597 C.ar      1 <1>        -0.195300 
     10 C          -4.481740    1.291911   -3.281739 C.ar      1 <1>         0.185500 
     11 C          -5.171710    1.428989   -4.650314 C.3       1 <1>         0.013800 
     12 C          -5.534737    2.889432   -4.979615 C.3       1 <1>        -0.458400 
     13 C          -6.475408    0.595471   -4.654059 C.3       1 <1>        -0.439800 
     14 C          -4.225217    0.905732   -5.757177 C.3       1 <1>        -0.439600 
     15 C          -4.082966    0.024015   -2.819377 C.ar      1 <1>        -0.188400 
     16 C          -3.455619   -0.144285   -1.590726 C.ar      1 <1>        -0.162600 
     17 N          -0.173067    0.737346    0.162099 N.ar      1 <1>        -0.541400 
     18 C           0.995293    0.073175    0.047026 C.ar      1 <1>         0.692500 
     19 N           2.043481    0.886154   -0.333380 N.pl3     1 <1>        -0.769800 
     20 C           3.396183    0.636072   -0.562765 C.ar      1 <1>         0.383100 
     21 C           4.185790    1.737637   -0.952889 C.ar      1 <1>        -0.205500 
     22 C           5.539586    1.591204   -1.203909 C.ar      1 <1>        -0.140500 
     23 C           6.150581    0.331515   -1.072161 C.ar      1 <1>         0.131100 
     24 C           7.548827    0.171989   -1.330394 C.1       1 <1>         0.227000 
     25 N           8.686514    0.043118   -1.541112 N.1       1 <1>        -0.485100 
     26 C           5.364724   -0.765787   -0.683259 C.ar      1 <1>        -0.153400 
     27 C           4.006006   -0.625468   -0.429954 C.ar      1 <1>        -0.160000 
     28 N           1.194880   -1.230538    0.264948 N.ar      1 <1>        -0.529500 
     29 H          -0.573634   -3.922211    1.177165 H         1 <1>         0.162300 
     30 H           1.088251   -3.544463    1.689290 H         1 <1>         0.182200 
     31 H           0.756593   -3.889387   -0.006515 H         1 <1>         0.180200 
     32 H          -1.995303   -1.930766    1.110057 H         1 <1>         0.165000 
     33 H          -2.273749    1.804903    0.963627 H         1 <1>         0.209900 
     34 H          -3.406143    3.093498   -0.586850 H         1 <1>         0.133300 
     35 H          -4.503533    3.386200   -2.749969 H         1 <1>         0.132800 
     36 H          -4.647473    3.531369   -5.023133 H         1 <1>         0.146300 
     37 H          -6.022589    2.935327   -5.959546 H         1 <1>         0.144600 
     38 H          -6.229374    3.313108   -4.245439 H         1 <1>         0.147500 
     39 H          -7.169412    0.948933   -3.883082 H         1 <1>         0.150400 
     40 H          -6.976049    0.678057   -5.626401 H         1 <1>         0.141800 
     41 H          -6.282561   -0.466312   -4.468512 H         1 <1>         0.144000 
     42 H          -3.961980   -0.146376   -5.606202 H         1 <1>         0.143800 
     43 H          -4.705539    0.991200   -6.739345 H         1 <1>         0.142100 
     44 H          -3.294064    1.483106   -5.782862 H         1 <1>         0.148800 
     45 H          -4.263841   -0.854669   -3.431844 H         1 <1>         0.131200 
     46 H          -3.163221   -1.140885   -1.271997 H         1 <1>         0.135900 
     47 H           1.739795    1.842526   -0.466342 H         1 <1>         0.346800 
     48 H           3.724508    2.716856   -1.058307 H         1 <1>         0.136800 
     49 H           6.132758    2.449099   -1.503448 H         1 <1>         0.157800 
     50 H           5.828275   -1.741791   -0.578962 H         1 <1>         0.157200 
     51 H           3.407575   -1.473774   -0.131597 H         1 <1>         0.185400 
@<TRIPOS>BOND
     1    8   34 1    
     2    5   33 1    
     3   21   48 1    
     4    9   35 1    
     5   22   49 1    
     6    9    8 ar   
     7    8    7 ar   
     8   19   47 1    
     9   21   22 ar   
    10   20   21 ar   
    11   12   38 1    
    12   10    9 ar   
    13    5    6 1    
    14    7    5 1    
    15    5    4 1    
    16   12   36 1    
    17   22   23 ar   
    18    4   17 ar   
    19   17   18 ar   
    20   19   20 1    
    21   18   19 1    
    22    7   16 ar   
    23   12   37 1    
    24   11   12 1    
    25   20   27 ar   
    26    4    3 ar   
    27   18   28 ar   
    28   23   24 1    
    29   23   26 ar   
    30   10   11 1    
    31   10   15 ar   
    32   24   25 3    
    33   27   26 ar   
    34   27   51 1    
    35   11   13 1    
    36   11   14 1    
    37   16   15 ar   
    38   16   46 1    
    39   13   39 1    
    40    3   32 1    
    41    3    2 ar   
    42   26   50 1    
    43   28    2 ar   
    44   14   44 1    
    45   15   45 1    
    46    2    1 1    
    47   13   40 1    
    48   13   41 1    
    49   14   43 1    
    50   14   42 1    
    51    1   30 1    
    52    1   29 1    
    53    1   31 1    
@<TRIPOS>SUBSTRUCTURE
     1 ****       47 TEMP              0 ****  ****    0 ROOT 
