#	Name:			YZH-2014-BMC-3220-2-7b
#	Creating user name:	Administrator
#	Creation time:		Sun Jul 05 16:40:44 2020

#	Modifying user name:	Administrator
#	Modification time:	Sun Jul 05 16:40:47 2020

@<TRIPOS>MOLECULE
YZH-2014-BMC-3220-2-7b
   39    41     1     0     0
SMALL
MULLIKEN_CHARGES
INVALID_CHARGES
Gaussian 16 #p B3LYP/6-31G* opt
@<TRIPOS>ATOM
      1 C          -5.128705    1.475776   -4.619056 C.3       1 <1>        -0.532200 
      2 C          -4.463401    1.303269   -3.274174 C.ar      1 <1>         0.182300 
      3 C          -4.077075    0.030885   -2.823945 C.ar      1 <1>        -0.177800 
      4 C          -3.453403   -0.139730   -1.592964 C.ar      1 <1>        -0.158600 
      5 C          -3.197377    0.963139   -0.765996 C.ar      1 <1>         0.201000 
      6 C          -2.524781    0.815010    0.579048 C.3       1 <1>        -0.388600 
      7 CL         -3.694354    0.112516    1.820119 Cl        1 <1>        -0.074100 
      8 C          -1.235513    0.009203    0.527844 C.ar      1 <1>         0.352900 
      9 C          -1.140435   -1.362126    0.790191 C.ar      1 <1>        -0.197900 
     10 C           0.120387   -1.927825    0.635809 C.ar      1 <1>         0.069500 
     11 N           1.201379   -1.234346    0.264548 N.ar      1 <1>        -0.473900 
     12 C           0.998032    0.072633    0.046496 C.ar      1 <1>         0.692900 
     13 N           2.042760    0.887190   -0.333414 N.pl3     1 <1>        -0.764700 
     14 C           3.397186    0.639459   -0.562305 C.ar      1 <1>         0.382600 
     15 C           4.183360    1.742772   -0.952811 C.ar      1 <1>        -0.205400 
     16 C           5.537730    1.599596   -1.203418 C.ar      1 <1>        -0.140200 
     17 C           6.151482    0.341432   -1.070657 C.ar      1 <1>         0.131500 
     18 C           7.550233    0.185397   -1.328409 C.1       1 <1>         0.227700 
     19 N           8.688389    0.059974   -1.538834 N.1       1 <1>        -0.484200 
     20 C           5.368423   -0.757723   -0.681313 C.ar      1 <1>        -0.153000 
     21 C           4.009168   -0.620615   -0.428504 C.ar      1 <1>        -0.159700 
     22 N          -0.174286    0.729144    0.163321 N.ar      1 <1>        -0.534900 
     23 C          -3.581426    2.232507   -1.206578 C.ar      1 <1>        -0.172900 
     24 C          -4.204996    2.398462   -2.443680 C.ar      1 <1>        -0.182200 
     25 H          -4.440956    1.228835   -5.437920 H         1 <1>         0.168500 
     26 H          -5.999148    0.816845   -4.721607 H         1 <1>         0.166600 
     27 H          -5.467292    2.505542   -4.769342 H         1 <1>         0.159100 
     28 H          -4.268041   -0.838026   -3.449748 H         1 <1>         0.130300 
     29 H          -3.166219   -1.136811   -1.271320 H         1 <1>         0.137600 
     30 H          -2.274437    1.801812    0.968241 H         1 <1>         0.210600 
     31 H          -1.992737   -1.945117    1.113435 H         1 <1>         0.171500 
     32 H           0.278982   -2.988942    0.819937 H         1 <1>         0.159200 
     33 H           1.737906    1.843201   -0.466565 H         1 <1>         0.347600 
     34 H           3.719629    2.720863   -1.058934 H         1 <1>         0.137300 
     35 H           6.128936    2.458782   -1.503285 H         1 <1>         0.158500 
     36 H           5.834306   -1.732494   -0.576170 H         1 <1>         0.158800 
     37 H           3.413833   -1.471170   -0.129917 H         1 <1>         0.189300 
     38 H          -3.395094    3.099949   -0.577943 H         1 <1>         0.135000 
     39 H          -4.495258    3.395552   -2.766003 H         1 <1>         0.130000 
@<TRIPOS>BOND
     1   23   38 1    
     2   15   34 1    
     3    6   30 1    
     4   16   35 1    
     5   24   39 1    
     6   13   33 1    
     7   24   23 ar   
     8   23    5 ar   
     9   15   16 ar   
    10   14   15 ar   
    11   16   17 ar   
    12    2   24 ar   
    13    6    7 1    
    14    5    6 1    
    15    6    8 1    
    16    8   22 ar   
    17   22   12 ar   
    18   13   14 1    
    19   12   13 1    
    20   14   21 ar   
    21    5    4 ar   
    22    8    9 ar   
    23   12   11 ar   
    24   17   18 1    
    25   17   20 ar   
    26    1   27 1    
    27   18   19 3    
    28    2    1 1    
    29    2    3 ar   
    30   21   20 ar   
    31   21   37 1    
    32   20   36 1    
    33    9   31 1    
    34    9   10 ar   
    35    1   25 1    
    36    1   26 1    
    37   11   10 ar   
    38    4    3 ar   
    39    4   29 1    
    40    3   28 1    
    41   10   32 1    
@<TRIPOS>SUBSTRUCTURE
     1 ****       33 TEMP              0 ****  ****    0 ROOT 
