#	Name:			YZH-2014-BMC-2535-2-3p
#	Creating user name:	Administrator
#	Creation time:		Sun Jul 05 16:40:43 2020

#	Modifying user name:	Administrator
#	Modification time:	Sun Jul 05 16:40:47 2020

@<TRIPOS>MOLECULE
YZH-2014-BMC-2535-2-3p
   44    47     1     0     0
SMALL
MULLIKEN_CHARGES
INVALID_CHARGES
Gaussian 16 #p B3LYP/6-31G* opt
@<TRIPOS>ATOM
      1 N           4.594128    7.052745   -0.776247 N.1       1 <1>        -0.486800 
      2 C           4.193796    5.969947   -0.625272 C.1       1 <1>         0.226500 
      3 C           3.702850    4.639033   -0.438682 C.ar      1 <1>         0.131800 
      4 C           4.595912    3.560124   -0.313614 C.ar      1 <1>        -0.141400 
      5 C           4.111912    2.275194   -0.133681 C.ar      1 <1>        -0.204800 
      6 C           2.726067    2.023297   -0.072315 C.ar      1 <1>         0.379100 
      7 N           2.340878    0.695740    0.123173 N.pl3     1 <1>        -0.763500 
      8 C           1.103341    0.092616    0.182674 C.ar      1 <1>         0.687200 
      9 N           1.162176   -1.232286    0.449734 N.ar      1 <1>        -0.481700 
     10 C          -0.012995   -1.846854    0.526145 C.ar      1 <1>         0.066400 
     11 C          -1.235782   -1.190525    0.352649 C.ar      1 <1>        -0.214600 
     12 C          -1.172109    0.173857    0.070236 C.ar      1 <1>         0.315700 
     13 C          -2.416978    1.040007   -0.187030 C.3       1 <1>         0.218000 
     14 O          -2.182387    2.259421    0.529954 O.3       1 <1>        -0.641400 
     15 C          -2.525816    1.313253   -1.699587 C.ar      1 <1>         0.140100 
     16 C          -2.464357    0.272293   -2.637599 C.ar      1 <1>        -0.183200 
     17 C          -2.578309    0.522823   -4.004256 C.ar      1 <1>        -0.153600 
     18 C          -2.751995    1.834238   -4.442112 C.ar      1 <1>         0.085700 
     19 BR         -2.911802    2.188601   -6.314032 Br        1 <1>        -0.126900 
     20 C          -2.799731    2.888925   -3.535093 C.ar      1 <1>        -0.147000 
     21 C          -2.681901    2.621015   -2.170356 C.ar      1 <1>        -0.182500 
     22 C          -3.677310    0.406032    0.414770 C.3       1 <1>        -0.162900 
     23 C          -4.682317   -0.451885   -0.312207 C.3       1 <1>        -0.314900 
     24 C          -5.052164    0.953213    0.087796 C.3       1 <1>        -0.343700 
     25 N          -0.001053    0.813434   -0.024504 N.ar      1 <1>        -0.515800 
     26 C           1.828827    3.101527   -0.195381 C.ar      1 <1>        -0.166000 
     27 C           2.322094    4.387716   -0.375937 C.ar      1 <1>        -0.156100 
     28 H           5.665571    3.737230   -0.359478 H         1 <1>         0.156300 
     29 H           4.811649    1.447759   -0.039853 H         1 <1>         0.135500 
     30 H           3.089304    0.029375    0.265208 H         1 <1>         0.346700 
     31 H           0.018167   -2.914462    0.739563 H         1 <1>         0.154600 
     32 H          -2.175432   -1.721828    0.432479 H         1 <1>         0.153400 
     33 H          -3.058541    2.620923    0.740930 H         1 <1>         0.400900 
     34 H          -2.305518   -0.750042   -2.306589 H         1 <1>         0.143700 
     35 H          -2.525355   -0.289832   -4.720541 H         1 <1>         0.156400 
     36 H          -2.918089    3.907718   -3.887971 H         1 <1>         0.157900 
     37 H          -2.683227    3.442714   -1.463289 H         1 <1>         0.144000 
     38 H          -3.520252    0.154296    1.462227 H         1 <1>         0.159400 
     39 H          -5.121278   -1.280214    0.237353 H         1 <1>         0.158700 
     40 H          -4.540857   -0.641306   -1.371024 H         1 <1>         0.171100 
     41 H          -5.753618    1.098562    0.904343 H         1 <1>         0.162200 
     42 H          -5.134186    1.683653   -0.713171 H         1 <1>         0.168900 
     43 H           0.764226    2.920802   -0.147405 H         1 <1>         0.210300 
     44 H           1.626261    5.215570   -0.468721 H         1 <1>         0.156200 
@<TRIPOS>BOND
     1   10   31 1    
     2    7   30 1    
     3    5   29 1    
     4   10    9 ar   
     5    8    9 ar   
     6   17   35 1    
     7   11   10 ar   
     8    8    7 1    
     9    7    6 1    
    10   16   34 1    
    11    6    5 ar   
    12    5    4 ar   
    13   25    8 ar   
    14   16   17 ar   
    15   17   18 ar   
    16    4   28 1    
    17   11   32 1    
    18   12   11 ar   
    19   18   19 1    
    20    6   26 ar   
    21   15   16 ar   
    22    4    3 ar   
    23   20   18 ar   
    24   12   25 ar   
    25   13   12 1    
    26   23   40 1    
    27   26   43 1    
    28   26   27 ar   
    29   27    3 ar   
    30    3    2 1    
    31   13   15 1    
    32   15   21 ar   
    33   23   39 1    
    34   21   20 ar   
    35   20   36 1    
    36   22   23 1    
    37   23   24 1    
    38   13   22 1    
    39   13   14 1    
    40   27   44 1    
    41    2    1 3    
    42   21   37 1    
    43   22   38 1    
    44   22   24 1    
    45   14   33 1    
    46   24   42 1    
    47   24   41 1    
@<TRIPOS>SUBSTRUCTURE
     1 ****       35 TEMP              0 ****  ****    0 ROOT 
