#	Name:			YZH-2014-BMC-2535-2-3b
#	Creating user name:	Administrator
#	Creation time:		Sun Jul 05 16:40:40 2020

#	Modifying user name:	Administrator
#	Modification time:	Sun Jul 05 16:40:47 2020

@<TRIPOS>MOLECULE
YZH-2014-BMC-2535-2-3b
   52    54     1     0     0
SMALL
MULLIKEN_CHARGES
INVALID_CHARGES
Gaussian 16 #p B3LYP/6-31G* opt
@<TRIPOS>ATOM
      1 C          -6.106628   -2.363383   -3.826285 C.3       1 <1>        -0.438900 
      2 C          -6.752060   -1.419512   -2.783779 C.3       1 <1>         0.016100 
      3 C          -7.538868   -0.307846   -3.518270 C.3       1 <1>        -0.438900 
      4 C          -7.750616   -2.240900   -1.946532 C.3       1 <1>        -0.456700 
      5 C          -5.649867   -0.781056   -1.920112 C.ar      1 <1>         0.185300 
      6 C          -4.648061    0.003128   -2.519984 C.ar      1 <1>        -0.190300 
      7 C          -3.637085    0.599151   -1.774821 C.ar      1 <1>        -0.164300 
      8 C          -3.576633    0.438755   -0.383423 C.ar      1 <1>         0.140200 
      9 C          -2.422532    1.082941    0.392931 C.3       1 <1>         0.189200 
     10 C          -2.760348    1.355986    1.875450 C.3       1 <1>        -0.448200 
     11 O          -2.108499    2.320583   -0.229243 O.3       1 <1>        -0.663800 
     12 C          -1.178520    0.170019    0.351697 C.ar      1 <1>         0.344600 
     13 C          -1.216656   -1.206429    0.609318 C.ar      1 <1>        -0.191700 
     14 C           0.001076   -1.871404    0.587067 C.ar      1 <1>         0.068800 
     15 N           1.170538   -1.268149    0.334417 N.ar      1 <1>        -0.478900 
     16 C           1.100529    0.045693    0.097123 C.ar      1 <1>         0.705700 
     17 N           2.239230    0.769701   -0.180274 N.pl3     1 <1>        -0.766100 
     18 C           3.584490    0.406227   -0.280298 C.ar      1 <1>         0.381900 
     19 C           4.495026    1.437868   -0.586174 C.ar      1 <1>        -0.206000 
     20 C           5.850217    1.179218   -0.706728 C.ar      1 <1>        -0.140000 
     21 C           6.338664   -0.126525   -0.523750 C.ar      1 <1>         0.132000 
     22 C           7.737486   -0.401930   -0.646304 C.1       1 <1>         0.228300 
     23 N           8.875763   -0.624511   -0.746254 N.1       1 <1>        -0.483200 
     24 C           5.431259   -1.154270   -0.219053 C.ar      1 <1>        -0.153000 
     25 C           4.070454   -0.901211   -0.096806 C.ar      1 <1>        -0.159000 
     26 N          -0.026865    0.790894    0.098991 N.ar      1 <1>        -0.607700 
     27 C          -4.568886   -0.334016    0.224348 C.ar      1 <1>        -0.196600 
     28 C          -5.583761   -0.931519   -0.530695 C.ar      1 <1>        -0.203800 
     29 H          -5.549660   -3.169012   -3.334143 H         1 <1>         0.145600 
     30 H          -5.411903   -1.830654   -4.484013 H         1 <1>         0.144000 
     31 H          -6.879051   -2.820058   -4.457007 H         1 <1>         0.139700 
     32 H          -8.014566    0.373260   -2.803503 H         1 <1>         0.148600 
     33 H          -6.890664    0.289719   -4.167670 H         1 <1>         0.144500 
     34 H          -8.324808   -0.747382   -4.144709 H         1 <1>         0.139100 
     35 H          -8.269754   -1.621169   -1.206532 H         1 <1>         0.146100 
     36 H          -8.511779   -2.676954   -2.603257 H         1 <1>         0.142500 
     37 H          -7.258902   -3.065873   -1.418305 H         1 <1>         0.143800 
     38 H          -4.656744    0.159199   -3.595486 H         1 <1>         0.126700 
     39 H          -2.891635    1.216601   -2.263980 H         1 <1>         0.143400 
     40 H          -2.951134    0.441538    2.445878 H         1 <1>         0.142100 
     41 H          -1.916776    1.876444    2.339641 H         1 <1>         0.152800 
     42 H          -3.640757    2.002639    1.930569 H         1 <1>         0.171800 
     43 H          -1.132294    2.373630   -0.222807 H         1 <1>         0.405500 
     44 H          -2.147507   -1.727624    0.794122 H         1 <1>         0.159100 
     45 H           0.054586   -2.942227    0.774855 H         1 <1>         0.158700 
     46 H           2.035233    1.747966   -0.338930 H         1 <1>         0.344200 
     47 H           4.128954    2.451890   -0.729934 H         1 <1>         0.137800 
     48 H           6.538464    1.984195   -0.942732 H         1 <1>         0.159600 
     49 H           5.800004   -2.165068   -0.076495 H         1 <1>         0.159500 
     50 H           3.378767   -1.697159    0.137594 H         1 <1>         0.190300 
     51 H          -4.576583   -0.475175    1.301071 H         1 <1>         0.123200 
     52 H          -6.332217   -1.516558   -0.007398 H         1 <1>         0.126400 
@<TRIPOS>BOND
     1   14   45 1    
     2   13   44 1    
     3   14   13 ar   
     4   15   14 ar   
     5    4   37 1    
     6   10   40 1    
     7   27   51 1    
     8   28   52 1    
     9   12   13 ar   
    10   24   49 1    
    11   25   50 1    
    12   16   15 ar   
    13    4   35 1    
    14    4   36 1    
    15    2    4 1    
    16   27   28 ar   
    17    8   27 ar   
    18   28    5 ar   
    19   25   24 ar   
    20   24   21 ar   
    21   18   25 ar   
    22   10   41 1    
    23   10   42 1    
    24    9   10 1    
    25    1   29 1    
    26   12    9 1    
    27   26   12 ar   
    28   16   26 ar   
    29   17   16 1    
    30   22   23 3    
    31    9    8 1    
    32    8    7 ar   
    33    9   11 1    
    34   21   22 1    
    35    5    2 1    
    36    5    6 ar   
    37   21   20 ar   
    38    2    1 1    
    39    2    3 1    
    40    1   31 1    
    41    1   30 1    
    42   18   17 1    
    43   18   19 ar   
    44   17   46 1    
    45    7    6 ar   
    46    7   39 1    
    47    6   38 1    
    48   20   19 ar   
    49   20   48 1    
    50   19   47 1    
    51   11   43 1    
    52    3   32 1    
    53    3   34 1    
    54    3   33 1    
@<TRIPOS>SUBSTRUCTURE
     1 ****       23 TEMP              0 ****  ****    0 ROOT 
