#	Name:			YZH-2014-BMC-2535-2-3g
#	Creating user name:	Administrator
#	Creation time:		Sun Jul 05 16:40:41 2020

#	Modifying user name:	Administrator
#	Modification time:	Sun Jul 05 16:40:47 2020

@<TRIPOS>MOLECULE
YZH-2014-BMC-2535-2-3g
   40    42     1     0     0
SMALL
MULLIKEN_CHARGES
INVALID_CHARGES
Gaussian 16 #p B3LYP/6-31G* opt
@<TRIPOS>ATOM
      1 C          -3.665935    0.393584   -0.214102 C.3       1 <1>        -0.448200 
      2 C          -2.395266    1.112493    0.260183 C.3       1 <1>         0.192700 
      3 O          -2.140853    2.131176   -0.696002 O.3       1 <1>        -0.655600 
      4 C          -2.619361    1.722660    1.662982 C.ar      1 <1>         0.140900 
      5 C          -2.708267    0.924099    2.811100 C.ar      1 <1>        -0.179900 
      6 C          -2.949492    1.485983    4.063979 C.ar      1 <1>        -0.152000 
      7 C          -3.105107    2.866575    4.169571 C.ar      1 <1>         0.085000 
      8 BR         -3.433284    3.648304    5.884561 Br        1 <1>        -0.131500 
      9 C          -3.023706    3.683062    3.045097 C.ar      1 <1>        -0.147600 
     10 C          -2.780809    3.104950    1.798178 C.ar      1 <1>        -0.183500 
     11 C          -1.170023    0.180104    0.301432 C.ar      1 <1>         0.346000 
     12 C          -1.221942   -1.194953    0.556766 C.ar      1 <1>        -0.211100 
     13 C          -0.004521   -1.868426    0.568425 C.ar      1 <1>         0.071000 
     14 N           1.171916   -1.271929    0.356888 N.ar      1 <1>        -0.475100 
     15 C           1.115190    0.046074    0.117843 C.ar      1 <1>         0.706300 
     16 N           2.267094    0.761469   -0.116475 N.pl3     1 <1>        -0.765300 
     17 C           3.613568    0.389721   -0.173389 C.ar      1 <1>         0.381700 
     18 C           4.539331    1.418867   -0.438162 C.ar      1 <1>        -0.205500 
     19 C           5.896295    1.153220   -0.516474 C.ar      1 <1>        -0.139700 
     20 C           6.370651   -0.157360   -0.331154 C.ar      1 <1>         0.132700 
     21 C           7.771291   -0.440122   -0.410971 C.1       1 <1>         0.229000 
     22 N           8.910742   -0.669009   -0.476306 N.1       1 <1>        -0.482000 
     23 C           5.447979   -1.182416   -0.066839 C.ar      1 <1>        -0.152700 
     24 C           4.085316   -0.922143    0.013012 C.ar      1 <1>        -0.158500 
     25 N          -0.006347    0.793605    0.076887 N.ar      1 <1>        -0.593300 
     26 H          -4.460911    1.135536   -0.329548 H         1 <1>         0.174500 
     27 H          -3.492562   -0.084898   -1.183146 H         1 <1>         0.161600 
     28 H          -4.005714   -0.356125    0.506228 H         1 <1>         0.145200 
     29 H          -1.179177    2.296457   -0.648980 H         1 <1>         0.406400 
     30 H          -2.580228   -0.152769    2.742781 H         1 <1>         0.131600 
     31 H          -3.012766    0.859815    4.947348 H         1 <1>         0.154400 
     32 H          -3.148909    4.756411    3.139864 H         1 <1>         0.155300 
     33 H          -2.721539    3.728350    0.913256 H         1 <1>         0.158500 
     34 H          -2.153973   -1.721230    0.718416 H         1 <1>         0.152900 
     35 H           0.035360   -2.940683    0.751993 H         1 <1>         0.161000 
     36 H           2.075689    1.743135   -0.271053 H         1 <1>         0.345300 
     37 H           4.184208    2.436631   -0.583182 H         1 <1>         0.138700 
     38 H           6.596693    1.956297   -0.721029 H         1 <1>         0.160600 
     39 H           5.806060   -2.196806    0.077727 H         1 <1>         0.160300 
     40 H           3.382521   -1.716503    0.217454 H         1 <1>         0.189800 
@<TRIPOS>BOND
     1   13   35 1    
     2    6   31 1    
     3   12   13 ar   
     4   13   14 ar   
     5   12   34 1    
     6   23   39 1    
     7    5   30 1    
     8   24   40 1    
     9   11   12 ar   
    10   15   14 ar   
    11    5    6 ar   
    12    6    7 ar   
    13   24   23 ar   
    14   23   20 ar   
    15    4    5 ar   
    16   17   24 ar   
    17    1   28 1    
    18    7    8 1    
    19   21   22 3    
    20   20   21 1    
    21   11   25 ar   
    22    2   11 1    
    23   25   15 ar   
    24   15   16 1    
    25    7    9 ar   
    26   20   19 ar   
    27    1   27 1    
    28    2    1 1    
    29    1   26 1    
    30   16   17 1    
    31   17   18 ar   
    32    4    2 1    
    33    4   10 ar   
    34   16   36 1    
    35    2    3 1    
    36   19   18 ar   
    37   19   38 1    
    38    9   10 ar   
    39    9   32 1    
    40   18   37 1    
    41   10   33 1    
    42    3   29 1    
@<TRIPOS>SUBSTRUCTURE
     1 ****       31 TEMP              0 ****  ****    0 ROOT 
