#	Name:			YZH-2014-BMC-2535-2-3e
#	Creating user name:	Administrator
#	Creation time:		Sun Jul 05 16:40:41 2020

#	Modifying user name:	Administrator
#	Modification time:	Sun Jul 05 16:40:47 2020

@<TRIPOS>MOLECULE
YZH-2014-BMC-2535-2-3e
   40    42     1     0     0
SMALL
MULLIKEN_CHARGES
INVALID_CHARGES
Gaussian 16 #p B3LYP/6-31G* opt
@<TRIPOS>ATOM
      1 C          -2.758824    1.359110    1.874557 C.3       1 <1>        -0.449500 
      2 C          -2.422007    1.082848    0.392409 C.3       1 <1>         0.189800 
      3 O          -2.107151    2.318263   -0.232736 O.3       1 <1>        -0.663400 
      4 C          -3.579654    0.441882   -0.383083 C.ar      1 <1>         0.136700 
      5 C          -4.568069   -0.334935    0.234619 C.ar      1 <1>        -0.193400 
      6 C          -5.588788   -0.931161   -0.509407 C.ar      1 <1>        -0.203500 
      7 C          -5.611868   -0.739493   -1.883853 C.ar      1 <1>         0.382700 
      8 F          -6.595767   -1.309696   -2.610437 F         1 <1>        -0.296700 
      9 C          -4.651248    0.030359   -2.530915 C.ar      1 <1>        -0.197500 
     10 C          -3.640593    0.616733   -1.773542 C.ar      1 <1>        -0.161700 
     11 C          -1.178395    0.168274    0.351419 C.ar      1 <1>         0.345300 
     12 C          -1.215963   -1.207631    0.609503 C.ar      1 <1>        -0.193400 
     13 C           0.002703   -1.871896    0.587274 C.ar      1 <1>         0.069800 
     14 N           1.171169   -1.267971    0.334600 N.ar      1 <1>        -0.477900 
     15 C           1.101029    0.046144    0.096949 C.ar      1 <1>         0.706500 
     16 N           2.238853    0.770199   -0.179532 N.pl3     1 <1>        -0.765900 
     17 C           3.585037    0.407146   -0.278175 C.ar      1 <1>         0.381500 
     18 C           4.494726    1.439718   -0.582451 C.ar      1 <1>        -0.206000 
     19 C           5.850362    1.182240   -0.701413 C.ar      1 <1>        -0.139800 
     20 C           6.339389   -0.123305   -0.518462 C.ar      1 <1>         0.132400 
     21 C           7.738789   -0.397453   -0.639257 C.1       1 <1>         0.228800 
     22 N           8.877328   -0.619079   -0.737562 N.1       1 <1>        -0.482200 
     23 C           5.432634   -1.151867   -0.215525 C.ar      1 <1>        -0.152800 
     24 C           4.071357   -0.899912   -0.094910 C.ar      1 <1>        -0.158800 
     25 N          -0.027568    0.790173    0.098308 N.ar      1 <1>        -0.607900 
     26 H          -3.639331    2.005720    1.929956 H         1 <1>         0.173000 
     27 H          -1.914810    1.881342    2.335632 H         1 <1>         0.155600 
     28 H          -2.946720    0.446333    2.448588 H         1 <1>         0.142300 
     29 H          -1.130492    2.370435   -0.225302 H         1 <1>         0.406700 
     30 H          -4.564423   -0.477913    1.310398 H         1 <1>         0.134900 
     31 H          -6.361126   -1.528845   -0.036408 H         1 <1>         0.147700 
     32 H          -4.707723    0.165935   -3.606153 H         1 <1>         0.149400 
     33 H          -2.895099    1.239409   -2.254606 H         1 <1>         0.155200 
     34 H          -2.145463   -1.730934    0.795995 H         1 <1>         0.157900 
     35 H           0.056784   -2.942662    0.775236 H         1 <1>         0.160400 
     36 H           2.035333    1.748593   -0.338146 H         1 <1>         0.344500 
     37 H           4.128243    2.453632   -0.726123 H         1 <1>         0.138200 
     38 H           6.538277    1.987818   -0.936130 H         1 <1>         0.160300 
     39 H           5.802052   -2.162537   -0.073038 H         1 <1>         0.160300 
     40 H           3.380345   -1.696785    0.138256 H         1 <1>         0.190500 
@<TRIPOS>BOND
     1    9   32 1    
     2   10   33 1    
     3   10    9 ar   
     4    9    7 ar   
     5   19   38 1    
     6   18   37 1    
     7    4   10 ar   
     8    7    8 1    
     9   18   19 ar   
    10   19   20 ar   
    11   17   18 ar   
    12    3   29 1    
    13    2    3 1    
    14   16   36 1    
    15    7    6 ar   
    16   21   22 3    
    17   20   21 1    
    18   20   23 ar   
    19   16   17 1    
    20   15   16 1    
    21   17   24 ar   
    22    2    4 1    
    23    4    5 ar   
    24   25   15 ar   
    25   11   25 ar   
    26    2   11 1    
    27    2    1 1    
    28   15   14 ar   
    29   23   24 ar   
    30   23   39 1    
    31   24   40 1    
    32    6    5 ar   
    33    6   31 1    
    34   11   12 ar   
    35    5   30 1    
    36   14   13 ar   
    37    1   26 1    
    38    1   27 1    
    39    1   28 1    
    40   12   13 ar   
    41   12   34 1    
    42   13   35 1    
@<TRIPOS>SUBSTRUCTURE
     1 ****       32 TEMP              0 ****  ****    0 ROOT 
