#	Name:			YZH-2014-BMC-3220-2-7j
#	Creating user name:	Administrator
#	Creation time:		Sun Jul 05 16:40:45 2020

#	Modifying user name:	Administrator
#	Modification time:	Sun Jul 05 16:40:47 2020

@<TRIPOS>MOLECULE
YZH-2014-BMC-3220-2-7j
   36    38     1     0     0
SMALL
MULLIKEN_CHARGES
INVALID_CHARGES
Gaussian 16 #p B3LYP/6-31G* opt
@<TRIPOS>ATOM
      1 N           8.706633    0.323712   -1.346330 N.1       1 <1>        -0.482700 
      2 C           7.559972    0.411498   -1.165704 C.1       1 <1>         0.228600 
      3 C           6.150374    0.520655   -0.944153 C.ar      1 <1>         0.132300 
      4 C           5.395525   -0.603650   -0.572716 C.ar      1 <1>        -0.152700 
      5 C           4.026304   -0.512164   -0.354729 C.ar      1 <1>        -0.158800 
      6 C           3.376337    0.726239   -0.506835 C.ar      1 <1>         0.382200 
      7 N           2.007541    0.929916   -0.314583 N.pl3     1 <1>        -0.764700 
      8 C           0.982938    0.086895    0.051742 C.ar      1 <1>         0.698200 
      9 N           1.230149   -1.209653    0.299322 N.ar      1 <1>        -0.472100 
     10 C           0.170868   -1.939970    0.654312 C.ar      1 <1>         0.079400 
     11 C          -1.113179   -1.415850    0.768702 C.ar      1 <1>        -0.204300 
     12 C          -1.254286   -0.053138    0.481831 C.ar      1 <1>         0.379400 
     13 C          -2.622088    0.604834    0.562650 C.3       1 <1>        -0.405000 
     14 CL         -2.610916    1.806468    1.959162 Cl        1 <1>        -0.055600 
     15 C          -3.095437    1.251334   -0.717913 C.ar      1 <1>         0.189100 
     16 C          -4.201947    0.707363   -1.379643 C.ar      1 <1>        -0.177200 
     17 C          -4.662413    1.250213   -2.579831 C.ar      1 <1>        -0.146000 
     18 C          -4.006391    2.355235   -3.113996 C.ar      1 <1>         0.086600 
     19 BR         -4.626654    3.115472   -4.753318 Br        1 <1>        -0.120400 
     20 C          -2.905847    2.921111   -2.468923 C.ar      1 <1>        -0.152700 
     21 C          -2.454248    2.366771   -1.274581 C.ar      1 <1>        -0.141700 
     22 N          -0.216339    0.697655    0.121786 N.ar      1 <1>        -0.529300 
     23 C           4.134012    1.854875   -0.879501 C.ar      1 <1>        -0.205000 
     24 C           5.498541    1.757336   -1.095339 C.ar      1 <1>        -0.139800 
     25 H           5.891125   -1.562086   -0.453591 H         1 <1>         0.159700 
     26 H           3.453746   -1.382108   -0.068424 H         1 <1>         0.189000 
     27 H           1.677665    1.876022   -0.457751 H         1 <1>         0.348400 
     28 H           0.364797   -2.991736    0.857568 H         1 <1>         0.161200 
     29 H          -1.953364   -2.031870    1.067899 H         1 <1>         0.151900 
     30 H          -3.346720   -0.150259    0.869696 H         1 <1>         0.197700 
     31 H          -4.718230   -0.151627   -0.957667 H         1 <1>         0.140600 
     32 H          -5.520753    0.823752   -3.086875 H         1 <1>         0.159700 
     33 H          -2.411608    3.786623   -2.896485 H         1 <1>         0.159000 
     34 H          -1.601137    2.800703   -0.766593 H         1 <1>         0.166600 
     35 H           3.640744    2.816696   -0.999103 H         1 <1>         0.138500 
     36 H           6.067840    2.635537   -1.381597 H         1 <1>         0.160000 
@<TRIPOS>BOND
     1   13   14 1    
     2   23   35 1    
     3   24   36 1    
     4   21   34 1    
     5   20   33 1    
     6    7   27 1    
     7   23   24 ar   
     8    6   23 ar   
     9   24    3 ar   
    10   21   20 ar   
    11   15   21 ar   
    12   20   18 ar   
    13    7    6 1    
    14    8    7 1    
    15   22    8 ar   
    16   12   22 ar   
    17    6    5 ar   
    18   13   15 1    
    19   13   12 1    
    20   13   30 1    
    21   15   16 ar   
    22    3    2 1    
    23    3    4 ar   
    24    2    1 3    
    25   18   19 1    
    26   18   17 ar   
    27    8    9 ar   
    28   12   11 ar   
    29    5    4 ar   
    30    5   26 1    
    31   16   17 ar   
    32   16   31 1    
    33    4   25 1    
    34   17   32 1    
    35    9   10 ar   
    36   11   10 ar   
    37   11   29 1    
    38   10   28 1    
@<TRIPOS>SUBSTRUCTURE
     1 ****       14 TEMP              0 ****  ****    0 ROOT 
