#	Name:			YZH-2014-BMC-2535-2-3q
#	Creating user name:	Administrator
#	Creation time:		Sun Jul 05 16:40:44 2020

#	Modifying user name:	Administrator
#	Modification time:	Sun Jul 05 16:40:47 2020

@<TRIPOS>MOLECULE
YZH-2014-BMC-2535-2-3q
   55    57     1     0     0
SMALL
MULLIKEN_CHARGES
INVALID_CHARGES
Gaussian 16 #p B3LYP/6-31G* opt
@<TRIPOS>ATOM
      1 C          -2.428975   -2.257187    0.295344 C.3       1 <1>        -0.526900 
      2 C          -1.209971   -1.371829    0.244282 C.ar      1 <1>         0.117400 
      3 C           0.045115   -1.895865    0.549856 C.ar      1 <1>         0.013900 
      4 N           1.190593   -1.203356    0.549525 N.ar      1 <1>        -0.472400 
      5 C           1.068914    0.086621    0.231953 C.ar      1 <1>         0.686900 
      6 N           2.175681    0.915167    0.201329 N.pl3     1 <1>        -0.767100 
      7 C           3.526480    0.686615    0.454871 C.ar      1 <1>         0.383900 
      8 C           4.393023    1.792205    0.325556 C.ar      1 <1>        -0.206600 
      9 C           5.752111    1.663962    0.556627 C.ar      1 <1>        -0.140600 
     10 C           6.292110    0.419178    0.926758 C.ar      1 <1>         0.130100 
     11 C           7.695406    0.279171    1.167029 C.1       1 <1>         0.226200 
     12 N           8.837756    0.166909    1.362176 N.1       1 <1>        -0.486300 
     13 C           5.429545   -0.682128    1.055806 C.ar      1 <1>        -0.153500 
     14 C           4.065130   -0.560351    0.825282 C.ar      1 <1>        -0.161700 
     15 N          -0.078624    0.718100   -0.084432 N.ar      1 <1>        -0.568200 
     16 C          -1.206828    0.006667   -0.084223 C.ar      1 <1>         0.264600 
     17 C          -2.493298    0.771691   -0.462288 C.3       1 <1>         0.195700 
     18 C          -2.189606    2.160598   -1.049273 C.3       1 <1>        -0.444400 
     19 O          -3.216030    0.006639   -1.439623 O.3       1 <1>        -0.646700 
     20 C          -3.401415    0.924825    0.761846 C.ar      1 <1>         0.113100 
     21 C          -2.884030    1.412687    1.969641 C.ar      1 <1>        -0.180200 
     22 C          -3.710720    1.608844    3.071297 C.ar      1 <1>        -0.195100 
     23 C          -5.087656    1.328435    3.022726 C.ar      1 <1>         0.185600 
     24 C          -5.965234    1.556841    4.266402 C.3       1 <1>         0.016500 
     25 C          -7.441225    1.193905    4.016194 C.3       1 <1>        -0.457100 
     26 C          -5.444881    0.681982    5.431709 C.3       1 <1>        -0.438900 
     27 C          -5.898840    3.047311    4.676670 C.3       1 <1>        -0.438900 
     28 C          -5.590510    0.842774    1.809486 C.ar      1 <1>        -0.199000 
     29 C          -4.767202    0.644470    0.697052 C.ar      1 <1>        -0.179700 
     30 H          -2.885027   -2.374434   -0.691040 H         1 <1>         0.179100 
     31 H          -2.157174   -3.247320    0.676567 H         1 <1>         0.147200 
     32 H          -3.201647   -1.840506    0.949161 H         1 <1>         0.180800 
     33 H           0.135528   -2.948602    0.816709 H         1 <1>         0.146600 
     34 H           1.924555    1.860942   -0.056119 H         1 <1>         0.342800 
     35 H           3.987311    2.760157    0.039907 H         1 <1>         0.134500 
     36 H           6.404780    2.524791    0.452777 H         1 <1>         0.156600 
     37 H           5.837605   -1.646725    1.341090 H         1 <1>         0.157200 
     38 H           3.408277   -1.412169    0.926595 H         1 <1>         0.189000 
     39 H          -1.536501    2.078819   -1.926523 H         1 <1>         0.137000 
     40 H          -1.687976    2.805478   -0.325848 H         1 <1>         0.164700 
     41 H          -3.136205    2.622447   -1.344674 H         1 <1>         0.159600 
     42 H          -2.716638    0.065601   -2.269550 H         1 <1>         0.396800 
     43 H          -1.824443    1.641582    2.052231 H         1 <1>         0.136100 
     44 H          -3.267608    1.987283    3.988311 H         1 <1>         0.126800 
     45 H          -8.024459    1.373432    4.926345 H         1 <1>         0.142200 
     46 H          -7.562491    0.137721    3.749710 H         1 <1>         0.145700 
     47 H          -7.881261    1.801345    3.217239 H         1 <1>         0.146000 
     48 H          -4.407931    0.920806    5.689991 H         1 <1>         0.143100 
     49 H          -5.488117   -0.382033    5.172562 H         1 <1>         0.147000 
     50 H          -6.056260    0.838517    6.328857 H         1 <1>         0.139700 
     51 H          -6.269873    3.692283    3.871859 H         1 <1>         0.147500 
     52 H          -4.876265    3.360965    4.911356 H         1 <1>         0.142700 
     53 H          -6.514606    3.225684    5.566669 H         1 <1>         0.139700 
     54 H          -6.644846    0.608285    1.711106 H         1 <1>         0.128000 
     55 H          -5.189013    0.266712   -0.227248 H         1 <1>         0.153000 
@<TRIPOS>BOND
     1   18   41 1    
     2   18   40 1    
     3   18   39 1    
     4    8   35 1    
     5   17   18 1    
     6    9   36 1    
     7   27   51 1    
     8    6   34 1    
     9    8    9 ar   
    10    7    8 ar   
    11    9   10 ar   
    12   27   52 1    
    13   19   42 1    
    14   27   53 1    
    15   24   27 1    
    16   17   19 1    
    17   20   17 1    
    18   17   16 1    
    19    6    7 1    
    20    5    6 1    
    21   16   15 ar   
    22   15    5 ar   
    23   21   43 1    
    24   21   20 ar   
    25   29   20 ar   
    26   22   21 ar   
    27    7   14 ar   
    28   25   47 1    
    29   29   55 1    
    30   28   29 ar   
    31   22   44 1    
    32   23   22 ar   
    33   23   28 ar   
    34   28   54 1    
    35   16    2 ar   
    36   24   23 1    
    37    5    4 ar   
    38   10   11 1    
    39   10   13 ar   
    40   24   25 1    
    41   24   26 1    
    42   11   12 3    
    43   25   45 1    
    44   25   46 1    
    45   14   13 ar   
    46   14   38 1    
    47   13   37 1    
    48    4    3 ar   
    49    2    3 ar   
    50    2    1 1    
    51   26   48 1    
    52   26   50 1    
    53   26   49 1    
    54    1   30 1    
    55    3   33 1    
    56    1   32 1    
    57    1   31 1    
@<TRIPOS>SUBSTRUCTURE
     1 ****       41 TEMP              0 ****  ****    0 ROOT 
