#	Name:			YZH-2014-BMC-2535-2-3i
#	Creating user name:	Administrator
#	Creation time:		Sun Jul 05 16:40:42 2020

#	Modifying user name:	Administrator
#	Modification time:	Sun Jul 05 16:40:47 2020

@<TRIPOS>MOLECULE
YZH-2014-BMC-2535-2-3i
   40    42     1     0     0
SMALL
MULLIKEN_CHARGES
INVALID_CHARGES
Gaussian 16 #p B3LYP/6-31G* opt
@<TRIPOS>ATOM
      1 C          -2.218546    2.386303   -0.566812 C.3       1 <1>        -0.425400 
      2 C          -2.455674    0.883431   -0.392822 C.3       1 <1>         0.173100 
      3 O          -2.855196    0.420558   -1.691765 O.3       1 <1>        -0.627000 
      4 C          -3.560480    0.645340    0.648545 C.ar      1 <1>         0.111900 
      5 C          -3.296089    0.770580    2.019622 C.ar      1 <1>        -0.169100 
      6 C          -4.315550    0.600458    2.954327 C.ar      1 <1>        -0.134100 
      7 C          -5.615648    0.300094    2.542707 C.ar      1 <1>        -0.127100 
      8 C          -5.869414    0.181805    1.178698 C.ar      1 <1>        -0.064600 
      9 CL         -7.500873   -0.192823    0.634127 Cl        1 <1>        -0.021700 
     10 C          -4.861880    0.353541    0.229703 C.ar      1 <1>        -0.196800 
     11 C          -1.172086    0.121354   -0.012427 C.ar      1 <1>         0.338500 
     12 C          -1.220643   -1.251914    0.285903 C.ar      1 <1>        -0.214700 
     13 C          -0.007318   -1.879276    0.529285 C.ar      1 <1>         0.070300 
     14 N           1.169132   -1.240778    0.499275 N.ar      1 <1>        -0.474300 
     15 C           1.103822    0.066680    0.218583 C.ar      1 <1>         0.695800 
     16 N           2.250142    0.829079    0.171182 N.pl3     1 <1>        -0.764300 
     17 C           3.597223    0.520693    0.370786 C.ar      1 <1>         0.382000 
     18 C           4.079776   -0.760480    0.695144 C.ar      1 <1>        -0.159600 
     19 C           5.443191   -0.958943    0.874664 C.ar      1 <1>        -0.153000 
     20 C           6.357049    0.098677    0.738364 C.ar      1 <1>         0.131900 
     21 C           7.758636   -0.120092    0.926794 C.1       1 <1>         0.228100 
     22 N           8.898957   -0.296643    1.080298 N.1       1 <1>        -0.483300 
     23 C           5.872362    1.378162    0.413498 C.ar      1 <1>        -0.140100 
     24 C           4.514521    1.582355    0.233451 C.ar      1 <1>        -0.205300 
     25 N          -0.016730    0.778105   -0.039677 N.ar      1 <1>        -0.561500 
     26 H          -1.448991    2.558763   -1.321731 H         1 <1>         0.170600 
     27 H          -1.898074    2.843540    0.372496 H         1 <1>         0.151400 
     28 H          -3.153573    2.852878   -0.888630 H         1 <1>         0.161100 
     29 H          -2.952547   -0.545499   -1.654236 H         1 <1>         0.393300 
     30 H          -2.289639    0.999870    2.359158 H         1 <1>         0.141400 
     31 H          -4.099967    0.698221    4.014618 H         1 <1>         0.144800 
     32 H          -6.414829    0.161594    3.262758 H         1 <1>         0.157700 
     33 H          -5.085430    0.275577   -0.827652 H         1 <1>         0.166400 
     34 H          -2.157664   -1.794122    0.349573 H         1 <1>         0.151400 
     35 H           0.036056   -2.940903    0.766050 H         1 <1>         0.158400 
     36 H           2.044724    1.793047   -0.059851 H         1 <1>         0.348000 
     37 H           3.383370   -1.579553    0.800935 H         1 <1>         0.189100 
     38 H           5.809193   -1.949796    1.124686 H         1 <1>         0.159200 
     39 H           6.565827    2.205627    0.304263 H         1 <1>         0.159400 
     40 H           4.151244    2.576197   -0.017638 H         1 <1>         0.138300 
@<TRIPOS>BOND
     1    3   29 1    
     2   13   35 1    
     3    2    3 1    
     4   12   34 1    
     5   13   12 ar   
     6   14   13 ar   
     7   11   12 ar   
     8   10   33 1    
     9   15   14 ar   
    10   18   37 1    
    11   19   38 1    
    12   11    2 1    
    13   25   11 ar   
    14   18   19 ar   
    15   17   18 ar   
    16    2    4 1    
    17    2    1 1    
    18   19   20 ar   
    19    8    9 1    
    20   15   25 ar   
    21   16   15 1    
    22    4   10 ar   
    23   10    8 ar   
    24    1   26 1    
    25   17   16 1    
    26   17   24 ar   
    27   16   36 1    
    28   20   21 1    
    29   20   23 ar   
    30   21   22 3    
    31    4    5 ar   
    32    8    7 ar   
    33    1   28 1    
    34    1   27 1    
    35   24   23 ar   
    36   24   40 1    
    37   23   39 1    
    38    5   30 1    
    39    5    6 ar   
    40    7   32 1    
    41    7    6 ar   
    42    6   31 1    
@<TRIPOS>SUBSTRUCTURE
     1 ****       37 TEMP              0 ****  ****    0 ROOT 
